
##########                                Name:      BTB_A1501_2V3F
##########                    Molecular_Weight:              210.25
##########                DOCK_Rotatable_Bonds:                  13
##########                       Formal_Charge:              0.9994
##########                     HBond_Acceptors:                   6
##########                        HBond_Donors:                   6
##########                         Heavy_Atoms:                  14
##########                            HA_RMSDs:               0.589
##########                            HA_RMSDh:               0.589
##########                            HA_RMSDm:               0.589
##########                          Grid_Score:         -135.145630
##########                     Grid_vdw_energy:          -36.804310
##########                      Grid_es_energy:          -98.341324
##########           Internal_energy_repulsive:           21.742968

@<TRIPOS>MOLECULE
BTB_A1501_2V3F
 34 33 1 0 0
SMALL
USER_CHARGES


@<TRIPOS>ATOM
      1 C1         34.1366   32.2820    0.7921 C.3     1  <0>        -0.0073
      2 C2         35.7898   33.3172   -0.8124 C.3     1  <0>        -0.0073
      3 C3         33.5082   33.6672    0.9485 C.3     1  <0>         0.0841
      4 C4         36.0265   32.3807   -1.9927 C.3     1  <0>         0.0841
      5 C5         36.4053   31.9529    2.6675 C.3     1  <0>         0.0940
      6 C6         37.9446   32.5051    0.7987 C.3     1  <0>         0.0940
      7 C7         36.6317   30.3483    0.7661 C.3     1  <0>         0.0940
      8 C8         36.6193   31.8411    1.1572 C.3     1  <0>         0.0605
      9 N1         35.5263   32.4926    0.3969 N.4     1  <0>         0.2477
     10 O1         33.3294   33.8587    2.3583 O.3     1  <0>        -0.3898
     11 O2         35.2287   31.1952   -1.8642 O.3     1  <0>        -0.3898
     12 O3         35.8853   33.2560    3.0629 O.3     1  <0>        -0.3890
     13 O4         39.0140   31.8549    1.4928 O.3     1  <0>        -0.3890
     14 O5         37.3314   29.5537    1.7292 O.3     1  <0>        -0.3890
     15 H1         34.0877   31.7296    1.7420 H       1  <0>         0.0837
     16 H2         33.6030   31.7037    0.0233 H       1  <0>         0.0837
     17 H3         36.6788   33.9442   -0.6498 H       1  <0>         0.0837
     18 H4         34.9247   33.9647   -1.0180 H       1  <0>         0.0837
     19 H5         34.1673   34.4426    0.5312 H       1  <0>         0.0610
     20 H6         32.5428   33.7178    0.4236 H       1  <0>         0.0610
     21 H7         35.7536   32.8989   -2.9238 H       1  <0>         0.0610
     22 H8         37.0893   32.0981   -2.0204 H       1  <0>         0.0610
     23 H9         35.6835   31.1820    2.9751 H       1  <0>         0.0618
     24 H10        37.3718   31.7967    3.1690 H       1  <0>         0.0618
     25 H11        38.1114   32.4254   -0.2856 H       1  <0>         0.0618
     26 H12        37.9120   33.5655    1.0893 H       1  <0>         0.0618
     27 H13        35.5932   29.9917    0.7017 H       1  <0>         0.0618
     28 H14        37.1310   30.2427   -0.2084 H       1  <0>         0.0618
     29 H15        36.1929   33.0167    0.9270 H       1  <0>         0.2043
     30 H16        32.8106   34.6401    2.5090 H       1  <0>         0.2096
     31 H17        35.3145   30.6685   -2.6502 H       1  <0>         0.2096
     32 H18        35.6480   33.2370    3.9825 H       1  <0>         0.2097
     33 H19        39.8367   32.2768    1.2744 H       1  <0>         0.2097
     34 H20        37.2969   28.6400    1.4716 H       1  <0>         0.2097
@<TRIPOS>BOND
     1     1     3    1
     2     1     9    1
     3     2     4    1
     4     2     9    1
     5     3    10    1
     6     4    11    1
     7     5     8    1
     8     5    12    1
     9     6     8    1
    10     6    13    1
    11     7     8    1
    12     7    14    1
    13     8     9    1
    14     1    15    1
    15     1    16    1
    16     2    17    1
    17     2    18    1
    18     3    19    1
    19     3    20    1
    20     4    21    1
    21     4    22    1
    22     5    23    1
    23     5    24    1
    24     6    25    1
    25     6    26    1
    26     7    27    1
    27     7    28    1
    28     9    29    1
    29    10    30    1
    30    11    31    1
    31    12    32    1
    32    13    33    1
    33    14    34    1
@<TRIPOS>SUBSTRUCTURE
     1 <0>         1 TEMP              0 ****  ****    0 ROOT

