
##########                                Name:      BTB_A1501_2V3F
##########                    Molecular_Weight:              210.25
##########                DOCK_Rotatable_Bonds:                  13
##########                       Formal_Charge:              0.9994
##########                     HBond_Acceptors:                   6
##########                        HBond_Donors:                   6
##########                         Heavy_Atoms:                  14
##########                            HA_RMSDs:               4.034
##########                            HA_RMSDh:               2.583
##########                            HA_RMSDm:               1.716
##########                          Grid_Score:         -136.213547
##########                     Grid_vdw_energy:          -30.036993
##########                      Grid_es_energy:         -106.176552
##########           Internal_energy_repulsive:           23.118570

@<TRIPOS>MOLECULE
BTB_A1501_2V3F
 34 33 1 0 0
SMALL
USER_CHARGES


@<TRIPOS>ATOM
      1 C1         35.6731   33.2962    0.9709 C.3     1  <0>        -0.0073
      2 C2         36.6010   30.9499    0.8574 C.3     1  <0>        -0.0073
      3 C3         34.7121   32.8596    2.0772 C.3     1  <0>         0.0841
      4 C4         38.1132   31.1474    0.8354 C.3     1  <0>         0.0841
      5 C5         34.8733   33.3295   -1.7058 C.3     1  <0>         0.0940
      6 C6         34.9012   30.8472   -1.6390 C.3     1  <0>         0.0940
      7 C7         37.0432   32.1305   -2.0152 C.3     1  <0>         0.0940
      8 C8         35.6858   32.1051   -1.2814 C.3     1  <0>         0.0605
      9 N1         35.9653   32.1080    0.1743 N.4     1  <0>         0.2477
     10 O1         33.4109   33.2929    1.6585 O.3     1  <0>        -0.3898
     11 O2         38.4488   32.5084    1.1412 O.3     1  <0>        -0.3898
     12 O3         33.5137   33.3068   -1.1810 O.3     1  <0>        -0.3890
     13 O4         34.4712   30.9173   -3.0021 O.3     1  <0>        -0.3890
     14 O5         36.9017   32.5462   -3.3774 O.3     1  <0>        -0.3890
     15 H1         35.2094   34.0728    0.3449 H       1  <0>         0.0837
     16 H2         36.5981   33.7032    1.4054 H       1  <0>         0.0837
     17 H3         36.3390   30.0185    0.3341 H       1  <0>         0.0837
     18 H4         36.2478   30.8905    1.8974 H       1  <0>         0.0837
     19 H5         34.7360   31.7674    2.2045 H       1  <0>         0.0610
     20 H6         34.9865   33.3235    3.0361 H       1  <0>         0.0610
     21 H7         38.5734   30.4863    1.5845 H       1  <0>         0.0610
     22 H8         38.4941   30.8990   -0.1662 H       1  <0>         0.0610
     23 H9         35.3779   34.2307   -1.3274 H       1  <0>         0.0618
     24 H10        34.8224   33.3501   -2.8045 H       1  <0>         0.0618
     25 H11        35.5443   29.9650   -1.5039 H       1  <0>         0.0618
     26 H12        34.0223   30.7662   -0.9825 H       1  <0>         0.0618
     27 H13        37.7107   32.8357   -1.4983 H       1  <0>         0.0618
     28 H14        37.4730   31.1181   -1.9978 H       1  <0>         0.0618
     29 H15        35.2714   31.5149   -0.2341 H       1  <0>         0.2043
     30 H16        32.7520   32.9156    2.2294 H       1  <0>         0.2096
     31 H17        39.3909   32.5899    1.2321 H       1  <0>         0.2096
     32 H18        32.9787   33.9292   -1.6593 H       1  <0>         0.2097
     33 H19        34.2529   30.0459   -3.3110 H       1  <0>         0.2097
     34 H20        37.7615   32.6744   -3.7607 H       1  <0>         0.2097
@<TRIPOS>BOND
     1     1     3    1
     2     1     9    1
     3     2     4    1
     4     2     9    1
     5     3    10    1
     6     4    11    1
     7     5     8    1
     8     5    12    1
     9     6     8    1
    10     6    13    1
    11     7     8    1
    12     7    14    1
    13     8     9    1
    14     1    15    1
    15     1    16    1
    16     2    17    1
    17     2    18    1
    18     3    19    1
    19     3    20    1
    20     4    21    1
    21     4    22    1
    22     5    23    1
    23     5    24    1
    24     6    25    1
    25     6    26    1
    26     7    27    1
    27     7    28    1
    28     9    29    1
    29    10    30    1
    30    11    31    1
    31    12    32    1
    32    13    33    1
    33    14    34    1
@<TRIPOS>SUBSTRUCTURE
     1 <0>         1 TEMP              0 ****  ****    0 ROOT

