
##########                                Name:      BTB_A1501_2V3F
##########                    Molecular_Weight:              210.25
##########                DOCK_Rotatable_Bonds:                  13
##########                       Formal_Charge:              0.9994
##########                     HBond_Acceptors:                   6
##########                        HBond_Donors:                   6
##########                         Heavy_Atoms:                  14
##########                            HA_RMSDs:               3.954
##########                            HA_RMSDh:               2.544
##########                            HA_RMSDm:               1.669
##########                          Grid_Score:         -135.946991
##########                     Grid_vdw_energy:          -29.268982
##########                      Grid_es_energy:         -106.678001
##########           Internal_energy_repulsive:           20.633673

@<TRIPOS>MOLECULE
BTB_A1501_2V3F
 34 33 1 0 0
SMALL
USER_CHARGES


@<TRIPOS>ATOM
      1 C1         35.6201   33.4400    0.9209 C.3     1  <0>        -0.0073
      2 C2         36.3113   31.0204    1.1369 C.3     1  <0>        -0.0073
      3 C3         34.6812   33.2056    2.1048 C.3     1  <0>         0.0841
      4 C4         37.7921   30.7973    0.8482 C.3     1  <0>         0.0841
      5 C5         34.6282   33.0148   -1.7166 C.3     1  <0>         0.0940
      6 C6         35.0914   30.5886   -1.4603 C.3     1  <0>         0.0940
      7 C7         36.9879   32.2070   -1.8606 C.3     1  <0>         0.0940
      8 C8         35.6237   31.9885   -1.1731 C.3     1  <0>         0.0605
      9 N1         35.8299   32.1417    0.2867 N.4     1  <0>         0.2477
     10 O1         33.4078   33.7288    1.7038 O.3     1  <0>        -0.3898
     11 O2         38.5324   32.0110    1.0415 O.3     1  <0>        -0.3898
     12 O3         33.3299   32.9362   -1.0587 O.3     1  <0>        -0.3890
     13 O4         34.8673   30.4358   -2.8654 O.3     1  <0>        -0.3890
     14 O5         36.8369   32.7311   -3.1839 O.3     1  <0>        -0.3890
     15 H1         35.1691   34.1462    0.2082 H       1  <0>         0.0837
     16 H2         36.5774   33.8564    1.2676 H       1  <0>         0.0837
     17 H3         35.7444   30.1066    0.9050 H       1  <0>         0.0837
     18 H4         36.1720   31.2712    2.1988 H       1  <0>         0.0837
     19 H5         34.6058   32.1326    2.3347 H       1  <0>         0.0610
     20 H6         35.0498   33.7243    3.0020 H       1  <0>         0.0610
     21 H7         38.1798   30.0267    1.5308 H       1  <0>         0.0610
     22 H8         37.9097   30.4661   -0.1942 H       1  <0>         0.0610
     23 H9         35.0412   34.0211   -1.5531 H       1  <0>         0.0618
     24 H10        34.4862   32.8274   -2.7912 H       1  <0>         0.0618
     25 H11        35.8266   29.8424   -1.1245 H       1  <0>         0.0618
     26 H12        34.1440   30.4405   -0.9213 H       1  <0>         0.0618
     27 H13        37.5741   32.9206   -1.2630 H       1  <0>         0.0618
     28 H14        37.5116   31.2415   -1.9209 H       1  <0>         0.0618
     29 H15        35.1007   31.5715   -0.0917 H       1  <0>         0.2043
     30 H16        32.7493   33.4861    2.3441 H       1  <0>         0.2096
     31 H17        39.4252   31.8892    0.7405 H       1  <0>         0.2096
     32 H18        32.7311   33.5520   -1.4643 H       1  <0>         0.2097
     33 H19        34.3751   29.6387   -3.0233 H       1  <0>         0.2097
     34 H20        37.6653   33.0903   -3.4791 H       1  <0>         0.2097
@<TRIPOS>BOND
     1     1     3    1
     2     1     9    1
     3     2     4    1
     4     2     9    1
     5     3    10    1
     6     4    11    1
     7     5     8    1
     8     5    12    1
     9     6     8    1
    10     6    13    1
    11     7     8    1
    12     7    14    1
    13     8     9    1
    14     1    15    1
    15     1    16    1
    16     2    17    1
    17     2    18    1
    18     3    19    1
    19     3    20    1
    20     4    21    1
    21     4    22    1
    22     5    23    1
    23     5    24    1
    24     6    25    1
    25     6    26    1
    26     7    27    1
    27     7    28    1
    28     9    29    1
    29    10    30    1
    30    11    31    1
    31    12    32    1
    32    13    33    1
    33    14    34    1
@<TRIPOS>SUBSTRUCTURE
     1 <0>         1 TEMP              0 ****  ****    0 ROOT

