
##########                                Name:      BTB_A1501_2V3F
##########                    Molecular_Weight:              210.25
##########                DOCK_Rotatable_Bonds:                  13
##########                       Formal_Charge:              0.9994
##########                     HBond_Acceptors:                   6
##########                        HBond_Donors:                   6
##########                         Heavy_Atoms:                  14
##########                            HA_RMSDs:               3.868
##########                            HA_RMSDh:               2.501
##########                            HA_RMSDm:               1.632
##########                          Grid_Score:         -136.695282
##########                     Grid_vdw_energy:          -30.002794
##########                      Grid_es_energy:         -106.692482
##########           Internal_energy_repulsive:           23.854591

@<TRIPOS>MOLECULE
BTB_A1501_2V3F
 34 33 1 0 0
SMALL
USER_CHARGES


@<TRIPOS>ATOM
      1 C1         35.7464   33.4572    0.9816 C.3     1  <0>        -0.0073
      2 C2         36.5239   31.0779    1.3185 C.3     1  <0>        -0.0073
      3 C3         34.7079   33.2412    2.0831 C.3     1  <0>         0.0841
      4 C4         38.0484   31.0720    1.2729 C.3     1  <0>         0.0841
      5 C5         35.1339   33.0780   -1.7243 C.3     1  <0>         0.0940
      6 C6         35.1129   30.6330   -1.2900 C.3     1  <0>         0.0940
      7 C7         37.3019   31.8386   -1.6526 C.3     1  <0>         0.0940
      8 C8         35.8835   31.9272   -1.0511 C.3     1  <0>         0.0605
      9 N1         36.0302   32.1450    0.4077 N.4     1  <0>         0.2477
     10 O1         33.4951   33.8334    1.5988 O.3     1  <0>        -0.3898
     11 O2         38.5554   32.4104    1.1728 O.3     1  <0>        -0.3898
     12 O3         33.7503   33.1803   -1.2776 O.3     1  <0>        -0.3890
     13 O4         35.1986   30.2677   -2.6710 O.3     1  <0>        -0.3890
     14 O5         37.3186   32.2255   -3.0304 O.3     1  <0>        -0.3890
     15 H1         35.3519   34.1354    0.2108 H       1  <0>         0.0837
     16 H2         36.6628   33.8987    1.4002 H       1  <0>         0.0837
     17 H3         36.1373   30.1010    0.9925 H       1  <0>         0.0837
     18 H4         36.1823   31.2763    2.3451 H       1  <0>         0.0837
     19 H5         34.5658   32.1681    2.2785 H       1  <0>         0.0610
     20 H6         35.0285   33.7215    3.0193 H       1  <0>         0.0610
     21 H7         38.4342   30.6089    2.1931 H       1  <0>         0.0610
     22 H8         38.3801   30.4949    0.3971 H       1  <0>         0.0610
     23 H9         35.6491   34.0189   -1.4809 H       1  <0>         0.0618
     24 H10        35.1375   32.9077   -2.8111 H       1  <0>         0.0618
     25 H11        35.5449   29.8315   -0.6728 H       1  <0>         0.0618
     26 H12        34.0578   30.7805   -1.0162 H       1  <0>         0.0618
     27 H13        37.9668   32.5097   -1.0893 H       1  <0>         0.0618
     28 H14        37.6547   30.7997   -1.5733 H       1  <0>         0.0618
     29 H15        35.3383   31.5313    0.0273 H       1  <0>         0.2043
     30 H16        32.7571   33.4911    2.0893 H       1  <0>         0.2096
     31 H17        39.4692   32.3847    0.9141 H       1  <0>         0.2096
     32 H18        33.4223   34.0533   -1.4587 H       1  <0>         0.2097
     33 H19        34.4062   29.8111   -2.9281 H       1  <0>         0.2097
     34 H20        38.2174   32.3320   -3.3190 H       1  <0>         0.2097
@<TRIPOS>BOND
     1     1     3    1
     2     1     9    1
     3     2     4    1
     4     2     9    1
     5     3    10    1
     6     4    11    1
     7     5     8    1
     8     5    12    1
     9     6     8    1
    10     6    13    1
    11     7     8    1
    12     7    14    1
    13     8     9    1
    14     1    15    1
    15     1    16    1
    16     2    17    1
    17     2    18    1
    18     3    19    1
    19     3    20    1
    20     4    21    1
    21     4    22    1
    22     5    23    1
    23     5    24    1
    24     6    25    1
    25     6    26    1
    26     7    27    1
    27     7    28    1
    28     9    29    1
    29    10    30    1
    30    11    31    1
    31    12    32    1
    32    13    33    1
    33    14    34    1
@<TRIPOS>SUBSTRUCTURE
     1 <0>         1 TEMP              0 ****  ****    0 ROOT

