
##########                                Name:      BTB_A1501_2V3F
##########                    Molecular_Weight:              210.25
##########                DOCK_Rotatable_Bonds:                  13
##########                       Formal_Charge:              0.9994
##########                     HBond_Acceptors:                   6
##########                        HBond_Donors:                   6
##########                         Heavy_Atoms:                  14
##########                            HA_RMSDs:               3.921
##########                            HA_RMSDh:               2.252
##########                            HA_RMSDm:               1.644
##########                          Grid_Score:         -140.352707
##########                     Grid_vdw_energy:          -32.889374
##########                      Grid_es_energy:         -107.463333
##########           Internal_energy_repulsive:           23.202053

@<TRIPOS>MOLECULE
BTB_A1501_2V3F
 34 33 1 0 0
SMALL
USER_CHARGES


@<TRIPOS>ATOM
      1 C1         36.2659   33.3209    1.1966 C.3     1  <0>        -0.0073
      2 C2         36.3220   30.7959    1.1893 C.3     1  <0>        -0.0073
      3 C3         35.5958   33.1062    2.5542 C.3     1  <0>         0.0841
      4 C4         37.8177   30.5033    1.2475 C.3     1  <0>         0.0841
      5 C5         35.3028   33.4649   -1.4470 C.3     1  <0>         0.0940
      6 C6         34.8142   31.0324   -1.3413 C.3     1  <0>         0.0940
      7 C7         37.1754   31.8365   -1.7347 C.3     1  <0>         0.0940
      8 C8         35.8439   32.1051   -1.0023 C.3     1  <0>         0.0605
      9 N1         36.1207   32.0725    0.4535 N.4     1  <0>         0.2477
     10 O1         34.2445   32.7217    2.2669 O.3     1  <0>        -0.3898
     11 O2         38.5581   31.7069    1.4955 O.3     1  <0>        -0.3898
     12 O3         34.0957   33.8486   -0.7257 O.3     1  <0>        -0.3890
     13 O4         34.6766   30.9266   -2.7618 O.3     1  <0>        -0.3890
     14 O5         37.2108   32.4672   -3.0189 O.3     1  <0>        -0.3890
     15 H1         35.7809   34.1472    0.6563 H       1  <0>         0.0837
     16 H2         37.3300   33.5665    1.3291 H       1  <0>         0.0837
     17 H3         35.8022   29.9788    0.6677 H       1  <0>         0.0837
     18 H4         35.9198   30.8859    2.2092 H       1  <0>         0.0837
     19 H5         36.1118   32.3183    3.1223 H       1  <0>         0.0610
     20 H6         35.6188   34.0306    3.1498 H       1  <0>         0.0610
     21 H7         38.0130   29.7870    2.0591 H       1  <0>         0.0610
     22 H8         38.1383   30.0750    0.2863 H       1  <0>         0.0610
     23 H9         36.0759   34.2251   -1.2615 H       1  <0>         0.0618
     24 H10        35.0655   33.4116   -2.5198 H       1  <0>         0.0618
     25 H11        35.1460   30.0661   -0.9335 H       1  <0>         0.0618
     26 H12        33.8443   31.3049   -0.8997 H       1  <0>         0.0618
     27 H13        38.0003   32.2323   -1.1240 H       1  <0>         0.0618
     28 H14        37.2906   30.7510   -1.8711 H       1  <0>         0.0618
     29 H15        35.2604   31.7401    0.0669 H       1  <0>         0.2043
     30 H16        33.7717   32.5923    3.0807 H       1  <0>         0.2096
     31 H17        39.4736   31.4934    1.6325 H       1  <0>         0.2096
     32 H18        33.8561   34.7378   -0.9588 H       1  <0>         0.2097
     33 H19        33.9772   30.3176   -2.9681 H       1  <0>         0.2097
     34 H20        37.9173   32.0967   -3.5348 H       1  <0>         0.2097
@<TRIPOS>BOND
     1     1     3    1
     2     1     9    1
     3     2     4    1
     4     2     9    1
     5     3    10    1
     6     4    11    1
     7     5     8    1
     8     5    12    1
     9     6     8    1
    10     6    13    1
    11     7     8    1
    12     7    14    1
    13     8     9    1
    14     1    15    1
    15     1    16    1
    16     2    17    1
    17     2    18    1
    18     3    19    1
    19     3    20    1
    20     4    21    1
    21     4    22    1
    22     5    23    1
    23     5    24    1
    24     6    25    1
    25     6    26    1
    26     7    27    1
    27     7    28    1
    28     9    29    1
    29    10    30    1
    30    11    31    1
    31    12    32    1
    32    13    33    1
    33    14    34    1
@<TRIPOS>SUBSTRUCTURE
     1 <0>         1 TEMP              0 ****  ****    0 ROOT

