
##########                                Name:      BTB_A1501_2V3F
##########                    Molecular_Weight:              210.25
##########                DOCK_Rotatable_Bonds:                  13
##########                       Formal_Charge:              0.9994
##########                     HBond_Acceptors:                   6
##########                        HBond_Donors:                   6
##########                         Heavy_Atoms:                  14
##########                            HA_RMSDs:               4.078
##########                            HA_RMSDh:               2.531
##########                            HA_RMSDm:               1.701
##########                          Grid_Score:         -135.234818
##########                     Grid_vdw_energy:          -30.746725
##########                      Grid_es_energy:         -104.488091
##########           Internal_energy_repulsive:           32.798286

@<TRIPOS>MOLECULE
BTB_A1501_2V3F
 34 33 1 0 0
SMALL
USER_CHARGES


@<TRIPOS>ATOM
      1 C1         35.6312   33.2867    1.0112 C.3     1  <0>        -0.0073
      2 C2         36.5184   30.9326    0.7878 C.3     1  <0>        -0.0073
      3 C3         34.8994   32.7969    2.2613 C.3     1  <0>         0.0841
      4 C4         38.0215   31.1871    0.8335 C.3     1  <0>         0.0841
      5 C5         34.4809   33.2556   -1.5660 C.3     1  <0>         0.0940
      6 C6         34.8905   30.8082   -1.6631 C.3     1  <0>         0.0940
      7 C7         36.7849   32.4287   -2.0654 C.3     1  <0>         0.0940
      8 C8         35.4949   32.1507   -1.2653 C.3     1  <0>         0.0605
      9 N1         35.8596   32.1147    0.1710 N.4     1  <0>         0.2477
     10 O1         33.5169   33.1173    2.0559 O.3     1  <0>        -0.3898
     11 O2         38.2961   32.4957    1.3538 O.3     1  <0>        -0.3898
     12 O3         33.3576   33.2505   -0.6372 O.3     1  <0>        -0.3890
     13 O4         33.9605   30.9957   -2.7345 O.3     1  <0>        -0.3890
     14 O5         36.4983   32.8814   -3.3926 O.3     1  <0>        -0.3890
     15 H1         35.0209   34.0290    0.4760 H       1  <0>         0.0837
     16 H2         36.5886   33.7538    1.2859 H       1  <0>         0.0837
     17 H3         36.3104   30.0344    0.1878 H       1  <0>         0.0837
     18 H4         36.1346   30.7816    1.8075 H       1  <0>         0.0837
     19 H5         35.0324   31.7127    2.3900 H       1  <0>         0.0610
     20 H6         35.2858   33.2997    3.1601 H       1  <0>         0.0610
     21 H7         38.4943   30.4353    1.4825 H       1  <0>         0.0610
     22 H8         38.4305   31.1115   -0.1849 H       1  <0>         0.0610
     23 H9         34.9914   34.2270   -1.4899 H       1  <0>         0.0618
     24 H10        34.0921   33.1042   -2.5838 H       1  <0>         0.0618
     25 H11        35.6921   30.1294   -1.9899 H       1  <0>         0.0618
     26 H12        34.3685   30.3723   -0.7985 H       1  <0>         0.0618
     27 H13        37.3629   33.2061   -1.5443 H       1  <0>         0.0618
     28 H14        37.3689   31.4987   -2.1280 H       1  <0>         0.0618
     29 H15        35.1347   31.5404   -0.2095 H       1  <0>         0.2043
     30 H16        32.9964   32.7388    2.7548 H       1  <0>         0.2096
     31 H17        39.2265   32.6750    1.2858 H       1  <0>         0.2096
     32 H18        32.7846   33.9836   -0.8285 H       1  <0>         0.2097
     33 H19        33.2741   30.3414   -2.6767 H       1  <0>         0.2097
     34 H20        37.3089   33.1136   -3.8303 H       1  <0>         0.2097
@<TRIPOS>BOND
     1     1     3    1
     2     1     9    1
     3     2     4    1
     4     2     9    1
     5     3    10    1
     6     4    11    1
     7     5     8    1
     8     5    12    1
     9     6     8    1
    10     6    13    1
    11     7     8    1
    12     7    14    1
    13     8     9    1
    14     1    15    1
    15     1    16    1
    16     2    17    1
    17     2    18    1
    18     3    19    1
    19     3    20    1
    20     4    21    1
    21     4    22    1
    22     5    23    1
    23     5    24    1
    24     6    25    1
    25     6    26    1
    26     7    27    1
    27     7    28    1
    28     9    29    1
    29    10    30    1
    30    11    31    1
    31    12    32    1
    32    13    33    1
    33    14    34    1
@<TRIPOS>SUBSTRUCTURE
     1 <0>         1 TEMP              0 ****  ****    0 ROOT

