
##########                                Name:      BTB_A1501_2V3F
##########                    Molecular_Weight:              210.25
##########                DOCK_Rotatable_Bonds:                  13
##########                       Formal_Charge:              0.9994
##########                     HBond_Acceptors:                   6
##########                        HBond_Donors:                   6
##########                         Heavy_Atoms:                  14
##########                            HA_RMSDs:               4.057
##########                            HA_RMSDh:               2.448
##########                            HA_RMSDm:               1.781
##########                          Grid_Score:         -137.797043
##########                     Grid_vdw_energy:          -31.874498
##########                      Grid_es_energy:         -105.922539
##########           Internal_energy_repulsive:           25.673628

@<TRIPOS>MOLECULE
BTB_A1501_2V3F
 34 33 1 0 0
SMALL
USER_CHARGES


@<TRIPOS>ATOM
      1 C1         36.2200   33.3020    1.0996 C.3     1  <0>        -0.0073
      2 C2         36.9267   30.9108    0.6973 C.3     1  <0>        -0.0073
      3 C3         35.6432   32.8092    2.4273 C.3     1  <0>         0.0841
      4 C4         38.3624   31.2527    1.0821 C.3     1  <0>         0.0841
      5 C5         34.7853   33.4590   -1.3155 C.3     1  <0>         0.0940
      6 C6         34.9307   30.9862   -1.4917 C.3     1  <0>         0.0940
      7 C7         36.9064   32.4224   -2.1326 C.3     1  <0>         0.0940
      8 C8         35.7147   32.2533   -1.1668 C.3     1  <0>         0.0605
      9 N1         36.2640   32.1483    0.2059 N.4     1  <0>         0.2477
     10 O1         34.2661   32.5060    2.1669 O.3     1  <0>        -0.3898
     11 O2         38.7557   32.5049    0.5026 O.3     1  <0>        -0.3898
     12 O3         33.6428   33.3982   -0.4124 O.3     1  <0>        -0.3890
     13 O4         34.4114   31.0674   -2.8227 O.3     1  <0>        -0.3890
     14 O5         36.5058   33.0212   -3.3692 O.3     1  <0>        -0.3890
     15 H1         35.5831   34.0918    0.6748 H       1  <0>         0.0837
     16 H2         37.2306   33.7100    1.2488 H       1  <0>         0.0837
     17 H3         36.9247   30.1471   -0.0944 H       1  <0>         0.0837
     18 H4         36.3881   30.5224    1.5742 H       1  <0>         0.0837
     19 H5         36.1793   31.9142    2.7758 H       1  <0>         0.0610
     20 H6         35.7309   33.5857    3.2014 H       1  <0>         0.0610
     21 H7         38.4340   31.3248    2.1774 H       1  <0>         0.0610
     22 H8         39.0317   30.4604    0.7155 H       1  <0>         0.0610
     23 H9         35.3586   34.3706   -1.0911 H       1  <0>         0.0618
     24 H10        34.4109   33.4850   -2.3496 H       1  <0>         0.0618
     25 H11        35.5967   30.1144   -1.4121 H       1  <0>         0.0618
     26 H12        34.0981   30.8797   -0.7807 H       1  <0>         0.0618
     27 H13        37.6588   33.0674   -1.6553 H       1  <0>         0.0618
     28 H14        37.3340   31.4309   -2.3426 H       1  <0>         0.0618
     29 H15        35.4619   31.6287   -0.0885 H       1  <0>         0.2043
     30 H16        33.8094   32.3742    2.9895 H       1  <0>         0.2096
     31 H17        39.1096   33.0701    1.1791 H       1  <0>         0.2096
     32 H18        32.9258   33.9063   -0.7733 H       1  <0>         0.2097
     33 H19        33.8402   30.3260   -2.9861 H       1  <0>         0.2097
     34 H20        37.2687   33.3724   -3.8133 H       1  <0>         0.2097
@<TRIPOS>BOND
     1     1     3    1
     2     1     9    1
     3     2     4    1
     4     2     9    1
     5     3    10    1
     6     4    11    1
     7     5     8    1
     8     5    12    1
     9     6     8    1
    10     6    13    1
    11     7     8    1
    12     7    14    1
    13     8     9    1
    14     1    15    1
    15     1    16    1
    16     2    17    1
    17     2    18    1
    18     3    19    1
    19     3    20    1
    20     4    21    1
    21     4    22    1
    22     5    23    1
    23     5    24    1
    24     6    25    1
    25     6    26    1
    26     7    27    1
    27     7    28    1
    28     9    29    1
    29    10    30    1
    30    11    31    1
    31    12    32    1
    32    13    33    1
    33    14    34    1
@<TRIPOS>SUBSTRUCTURE
     1 <0>         1 TEMP              0 ****  ****    0 ROOT

