
##########                                Name:      BTB_A1501_2V3F
##########                    Molecular_Weight:              210.25
##########                DOCK_Rotatable_Bonds:                  13
##########                       Formal_Charge:              0.9994
##########                     HBond_Acceptors:                   6
##########                        HBond_Donors:                   6
##########                         Heavy_Atoms:                  14
##########                            HA_RMSDs:               3.961
##########                            HA_RMSDh:               2.341
##########                            HA_RMSDm:               1.642
##########                          Grid_Score:         -138.732773
##########                     Grid_vdw_energy:          -31.534113
##########                      Grid_es_energy:         -107.198662
##########           Internal_energy_repulsive:           29.308336

@<TRIPOS>MOLECULE
BTB_A1501_2V3F
 34 33 1 0 0
SMALL
USER_CHARGES


@<TRIPOS>ATOM
      1 C1         36.1952   33.3893    1.0673 C.3     1  <0>        -0.0073
      2 C2         36.3583   30.8697    1.1281 C.3     1  <0>        -0.0073
      3 C3         35.4703   33.2463    2.4060 C.3     1  <0>         0.0841
      4 C4         37.8707   30.6735    1.1405 C.3     1  <0>         0.0841
      5 C5         34.9019   33.3470   -1.4650 C.3     1  <0>         0.0940
      6 C6         34.7942   30.8699   -1.3256 C.3     1  <0>         0.0940
      7 C7         36.9738   32.0157   -1.8850 C.3     1  <0>         0.0940
      8 C8         35.6716   32.0887   -1.0601 C.3     1  <0>         0.0605
      9 N1         36.0514   32.1133    0.3724 N.4     1  <0>         0.2477
     10 O1         34.0704   33.3095    2.1014 O.3     1  <0>        -0.3898
     11 O2         38.5431   31.9386    1.2165 O.3     1  <0>        -0.3898
     12 O3         33.7788   33.6241   -0.5783 O.3     1  <0>        -0.3890
     13 O4         34.2798   30.9263   -2.6598 O.3     1  <0>        -0.3890
     14 O5         36.7892   32.5170   -3.2127 O.3     1  <0>        -0.3890
     15 H1         35.7485   34.2010    0.4744 H       1  <0>         0.0837
     16 H2         37.2586   33.6194    1.2300 H       1  <0>         0.0837
     17 H3         35.8746   30.0092    0.6426 H       1  <0>         0.0837
     18 H4         35.9854   30.9582    2.1592 H       1  <0>         0.0837
     19 H5         35.7214   32.2880    2.8838 H       1  <0>         0.0610
     20 H6         35.7561   34.0576    3.0916 H       1  <0>         0.0610
     21 H7         38.1477   30.0656    2.0144 H       1  <0>         0.0610
     22 H8         38.1745   30.1594    0.2166 H       1  <0>         0.0610
     23 H9         35.5917   34.2031   -1.4315 H       1  <0>         0.0618
     24 H10        34.5141   33.2053   -2.4846 H       1  <0>         0.0618
     25 H11        35.3931   29.9554   -1.2035 H       1  <0>         0.0618
     26 H12        33.9573   30.8601   -0.6117 H       1  <0>         0.0618
     27 H13        37.7438   32.6201   -1.3832 H       1  <0>         0.0618
     28 H14        37.2949   30.9653   -1.9456 H       1  <0>         0.0618
     29 H15        35.1810   31.7343    0.0582 H       1  <0>         0.2043
     30 H16        33.5681   33.0383    2.8608 H       1  <0>         0.2096
     31 H17        39.3433   31.8427    1.7196 H       1  <0>         0.2096
     32 H18        33.2319   34.3001   -0.9609 H       1  <0>         0.2097
     33 H19        33.7391   30.1626   -2.8238 H       1  <0>         0.2097
     34 H20        37.1722   31.9114   -3.8365 H       1  <0>         0.2097
@<TRIPOS>BOND
     1     1     3    1
     2     1     9    1
     3     2     4    1
     4     2     9    1
     5     3    10    1
     6     4    11    1
     7     5     8    1
     8     5    12    1
     9     6     8    1
    10     6    13    1
    11     7     8    1
    12     7    14    1
    13     8     9    1
    14     1    15    1
    15     1    16    1
    16     2    17    1
    17     2    18    1
    18     3    19    1
    19     3    20    1
    20     4    21    1
    21     4    22    1
    22     5    23    1
    23     5    24    1
    24     6    25    1
    25     6    26    1
    26     7    27    1
    27     7    28    1
    28     9    29    1
    29    10    30    1
    30    11    31    1
    31    12    32    1
    32    13    33    1
    33    14    34    1
@<TRIPOS>SUBSTRUCTURE
     1 <0>         1 TEMP              0 ****  ****    0 ROOT

