
##########                                Name:      BTB_A1501_2V3F
##########                    Molecular_Weight:              210.25
##########                DOCK_Rotatable_Bonds:                  13
##########                       Formal_Charge:              0.9994
##########                     HBond_Acceptors:                   6
##########                        HBond_Donors:                   6
##########                         Heavy_Atoms:                  14
##########                            HA_RMSDs:               3.886
##########                            HA_RMSDh:               2.280
##########                            HA_RMSDm:               1.615
##########                          Grid_Score:         -139.787964
##########                     Grid_vdw_energy:          -32.388680
##########                      Grid_es_energy:         -107.399292
##########           Internal_energy_repulsive:           28.039835

@<TRIPOS>MOLECULE
BTB_A1501_2V3F
 34 33 1 0 0
SMALL
USER_CHARGES


@<TRIPOS>ATOM
      1 C1         36.1649   33.3314    1.2802 C.3     1  <0>        -0.0073
      2 C2         36.1997   30.8060    1.2624 C.3     1  <0>        -0.0073
      3 C3         35.2125   33.2492    2.4736 C.3     1  <0>         0.0841
      4 C4         37.6841   30.4566    1.2461 C.3     1  <0>         0.0841
      5 C5         35.1467   33.4736   -1.3532 C.3     1  <0>         0.0940
      6 C6         34.7447   31.0241   -1.2790 C.3     1  <0>         0.0940
      7 C7         37.0766   31.9164   -1.6567 C.3     1  <0>         0.0940
      8 C8         35.7349   32.1284   -0.9243 C.3     1  <0>         0.0605
      9 N1         36.0099   32.0874    0.5317 N.4     1  <0>         0.2477
     10 O1         33.9239   33.6297    1.9727 O.3     1  <0>        -0.3898
     11 O2         38.4728   31.5856    1.6484 O.3     1  <0>        -0.3898
     12 O3         33.8671   33.7530   -0.7135 O.3     1  <0>        -0.3890
     13 O4         34.4705   31.0539   -2.6832 O.3     1  <0>        -0.3890
     14 O5         36.9570   32.1573   -3.0625 O.3     1  <0>        -0.3890
     15 H1         35.9116   34.1940    0.6465 H       1  <0>         0.0837
     16 H2         37.2032   33.4440    1.6256 H       1  <0>         0.0837
     17 H3         35.6233   30.0079    0.7716 H       1  <0>         0.0837
     18 H4         35.8534   30.9141    2.3009 H       1  <0>         0.0837
     19 H5         35.1855   32.2274    2.8800 H       1  <0>         0.0610
     20 H6         35.5345   33.9296    3.2757 H       1  <0>         0.0610
     21 H7         37.8657   29.6244    1.9422 H       1  <0>         0.0610
     22 H8         37.9731   30.1605    0.2268 H       1  <0>         0.0610
     23 H9         35.8554   34.2679   -1.0763 H       1  <0>         0.0618
     24 H10        34.9951   33.4561   -2.4426 H       1  <0>         0.0618
     25 H11        35.1754   30.0478   -1.0117 H       1  <0>         0.0618
     26 H12        33.8095   31.1793   -0.7210 H       1  <0>         0.0618
     27 H13        37.8196   32.6129   -1.2411 H       1  <0>         0.0618
     28 H14        37.4024   30.8770   -1.5031 H       1  <0>         0.0618
     29 H15        35.1473   31.7639    0.1428 H       1  <0>         0.2043
     30 H16        33.3318   33.7782    2.7006 H       1  <0>         0.2096
     31 H17        39.3883   31.3349    1.6880 H       1  <0>         0.2096
     32 H18        33.5260   34.5795   -1.0343 H       1  <0>         0.2097
     33 H19        33.7637   30.4509   -2.8812 H       1  <0>         0.2097
     34 H20        37.7913   31.9899   -3.4849 H       1  <0>         0.2097
@<TRIPOS>BOND
     1     1     3    1
     2     1     9    1
     3     2     4    1
     4     2     9    1
     5     3    10    1
     6     4    11    1
     7     5     8    1
     8     5    12    1
     9     6     8    1
    10     6    13    1
    11     7     8    1
    12     7    14    1
    13     8     9    1
    14     1    15    1
    15     1    16    1
    16     2    17    1
    17     2    18    1
    18     3    19    1
    19     3    20    1
    20     4    21    1
    21     4    22    1
    22     5    23    1
    23     5    24    1
    24     6    25    1
    25     6    26    1
    26     7    27    1
    27     7    28    1
    28     9    29    1
    29    10    30    1
    30    11    31    1
    31    12    32    1
    32    13    33    1
    33    14    34    1
@<TRIPOS>SUBSTRUCTURE
     1 <0>         1 TEMP              0 ****  ****    0 ROOT

