
##########                                Name:        Y27_416_2ETR
##########                    Molecular_Weight:             248.348
##########                DOCK_Rotatable_Bonds:                   4
##########                       Formal_Charge:              1.0001
##########                     HBond_Acceptors:                   4
##########                        HBond_Donors:                   4
##########                         Heavy_Atoms:                  18
##########                            HA_RMSDs:               0.415
##########                            HA_RMSDh:               0.415
##########                            HA_RMSDm:               0.415
##########                          Grid_Score:         -105.608551
##########                     Grid_vdw_energy:          -31.408857
##########                      Grid_es_energy:          -74.199692
##########           Internal_energy_repulsive:            8.971919

@<TRIPOS>MOLECULE
Y27_416_2ETR
 40 41 1 0 0
SMALL
USER_CHARGES


@<TRIPOS>ATOM
      1 C1         55.0561  103.1974   34.0363 C.3     1  <0>        -0.0215
      2 C2         51.1727   98.1854   27.6977 C.ar    1  <0>        -0.0223
      3 C3         50.4248  100.2790   26.7986 C.ar    1  <0>        -0.0223
      4 C4         50.7243   97.5553   26.5378 C.ar    1  <0>         0.0293
      5 C5         49.9902   99.5976   25.6600 C.ar    1  <0>         0.0293
      6 C6         52.1483  102.4893   33.0645 C.3     1  <0>        -0.0444
      7 C7         53.6306  103.5617   31.3155 C.3     1  <0>        -0.0444
      8 C8         51.2089  102.0281   31.9483 C.3     1  <0>        -0.0415
      9 C9         52.6676  103.0831   30.2251 C.3     1  <0>        -0.0415
     10 C10        51.0232   99.5644   27.8407 C.ar    1  <0>         0.0363
     11 C11        52.9394  103.7458   32.6761 C.3     1  <0>         0.0017
     12 C12        51.9742  101.7854   30.6441 C.3     1  <0>         0.0359
     13 C13        53.9033  104.1746   33.7940 C.3     1  <0>        -0.0244
     14 C14        51.0654  101.2783   29.5528 C.2     1  <0>         0.2203
     15 N1         54.4516  105.4862   33.5040 N.4     1  <0>         0.2207
     16 N2         50.1477   98.2666   25.5561 N.ar    1  <0>        -0.2631
     17 N3         51.4808  100.1393   28.9851 N.am    1  <0>        -0.2852
     18 O1         50.0436  101.8807   29.2502 O.2     1  <0>        -0.2752
     19 H1         55.6949  103.5771   34.8473 H       1  <0>         0.0284
     20 H2         54.6503  102.2148   34.3188 H       1  <0>         0.0284
     21 H3         55.6515  103.0978   33.1168 H       1  <0>         0.0284
     22 H4         51.6349   97.6068   28.4838 H       1  <0>         0.0651
     23 H5         50.2998  101.3491   26.8737 H       1  <0>         0.0651
     24 H6         50.8416   96.4873   26.4282 H       1  <0>         0.0830
     25 H7         49.5229  100.1452   24.8550 H       1  <0>         0.0830
     26 H8         51.5467  102.7164   33.9569 H       1  <0>         0.0270
     27 H9         52.8610  101.6794   33.2791 H       1  <0>         0.0270
     28 H10        54.4277  102.8123   31.4289 H       1  <0>         0.0270
     29 H11        54.0529  104.5292   31.0062 H       1  <0>         0.0270
     30 H12        50.7235  101.0903   32.2562 H       1  <0>         0.0273
     31 H13        50.4507  102.8064   31.7767 H       1  <0>         0.0273
     32 H14        51.9057  103.8578   30.0541 H       1  <0>         0.0273
     33 H15        53.2343  102.9042   29.2994 H       1  <0>         0.0273
     34 H16        52.2307  104.5784   32.5559 H       1  <0>         0.0355
     35 H17        52.7301  101.0046   30.8143 H       1  <0>         0.0394
     36 H18        53.3003  104.1906   34.7138 H       1  <0>         0.0850
     37 H19        53.7052  106.1321   33.3440 H       1  <0>         0.1997
     38 H20        55.0005  105.7969   34.2800 H       1  <0>         0.1997
     39 H21        55.0273  105.4337   32.6880 H       1  <0>         0.1997
     40 H22        52.2152   99.6534   29.4589 H       1  <0>         0.1548
@<TRIPOS>BOND
     1     1    13    1
     2     2     4   ar
     3     2    10   ar
     4     3     5   ar
     5     3    10   ar
     6     4    16   ar
     7     5    16   ar
     8     6     8    1
     9     6    11    1
    10     7     9    1
    11     7    11    1
    12     8    12    1
    13     9    12    1
    14    10    17    1
    15    11    13    1
    16    12    14    1
    17    13    15    1
    18    14    17   am
    19    14    18    2
    20     1    19    1
    21     1    20    1
    22     1    21    1
    23     2    22    1
    24     3    23    1
    25     4    24    1
    26     5    25    1
    27     6    26    1
    28     6    27    1
    29     7    28    1
    30     7    29    1
    31     8    30    1
    32     8    31    1
    33     9    32    1
    34     9    33    1
    35    11    34    1
    36    12    35    1
    37    13    36    1
    38    15    37    1
    39    15    38    1
    40    15    39    1
    41    17    40    1
@<TRIPOS>SUBSTRUCTURE
     1 <0>         1 TEMP              0 ****  ****    0 ROOT

