Z3831472882
  MJ210100                      

 23 25  0  0  1  0  0  0  0  0999 V2000
    0.5875   -1.5457    0.0000 C   0  0  0  0  0  0  0  0  0  0  0  0
    1.2006   -2.0978    0.0000 C   0  0  0  0  0  0  0  0  0  0  0  0
    2.0076   -1.9262    0.0000 N   0  0  0  0  0  0  0  0  0  0  0  0
    2.4201   -2.6407    0.0000 N   0  0  0  0  0  0  0  0  0  0  0  0
    3.2406   -2.7269    0.0000 C   0  0  0  0  0  0  0  0  0  0  0  0
    3.7255   -2.0595    0.0000 C   0  0  0  0  0  0  0  0  0  0  0  0
    3.3900   -1.3058    0.0000 C   0  0  0  0  0  0  0  0  0  0  0  0
    3.8749   -0.6384    0.0000 C   0  0  0  0  0  0  0  0  0  0  0  0
    4.6953   -0.7246    0.0000 C   0  0  0  0  0  0  0  0  0  0  0  0
    5.1803   -0.0572    0.0000 C   0  0  0  0  0  0  0  0  0  0  0  0
    5.0309   -1.4783    0.0000 C   0  0  0  0  0  0  0  0  0  0  0  0
    4.5460   -2.1457    0.0000 C   0  0  0  0  0  0  0  0  0  0  0  0
    1.8680   -3.2538    0.0000 C   0  0  0  0  0  0  0  0  0  0  0  0
    2.0396   -4.0608    0.0000 C   0  0  0  0  0  0  0  0  0  0  0  0
    1.1144   -2.9182    0.0000 C   0  0  0  0  0  0  0  0  0  0  0  0
    0.3999   -3.3307    0.0000 C   0  0  0  0  0  0  0  0  0  0  0  0
    0.3999   -4.1557    0.0000 N   0  0  0  0  0  0  0  0  0  0  0  0
   -0.3145   -4.5682    0.0000 C   0  0  0  0  0  0  0  0  0  0  0  0
   -0.3145   -5.3932    0.0000 C   0  0  0  0  0  0  0  0  0  0  0  0
    0.0979   -6.1077    0.0000 C   0  0  0  0  0  0  0  0  0  0  0  0
   -0.7270   -6.1077    0.0000 C   0  0  0  0  0  0  0  0  0  0  0  0
   -1.4415   -6.5202    0.0000 C   0  0  0  0  0  0  0  0  0  0  0  0
   -1.4415   -7.3452    0.0000 N   0  0  0  0  0  0  0  0  0  0  0  0
  1  2  1  0  0  0  0
  2  3  2  0  0  0  0
  3  4  1  0  0  0  0
  4  5  1  0  0  0  0
  5  6  1  0  0  0  0
  6  7  2  0  0  0  0
  7  8  1  0  0  0  0
  8  9  2  0  0  0  0
  9 10  1  0  0  0  0
  9 11  1  0  0  0  0
 11 12  2  0  0  0  0
  6 12  1  0  0  0  0
  4 13  1  0  0  0  0
 13 14  1  0  0  0  0
 13 15  2  0  0  0  0
  2 15  1  0  0  0  0
 15 16  1  0  0  0  0
 16 17  1  0  0  0  0
 17 18  1  0  0  0  0
 19 18  1  6  0  0  0
 19 20  1  0  0  0  0
 21 20  1  0  0  0  0
 19 21  1  0  0  0  0
 21 22  1  1  0  0  0
 22 23  1  0  0  0  0
M  END
