Z4315497494
  MJ210100                      

 26 27  0  0  0  0  0  0  0  0999 V2000
   -0.7144   -2.8875    0.0000 C   0  0  0  0  0  0  0  0  0  0  0  0
   -0.7144   -3.7125    0.0000 O   0  0  0  0  0  0  0  0  0  0  0  0
    0.0000   -4.1250    0.0000 C   0  0  0  0  0  0  0  0  0  0  0  0
    0.7144   -3.7125    0.0000 C   0  0  0  0  0  0  0  0  0  0  0  0
    1.4289   -4.1250    0.0000 C   0  0  0  0  0  0  0  0  0  0  0  0
    2.1433   -3.7125    0.0000 C   0  0  0  0  0  0  0  0  0  0  0  0
    2.8578   -4.1250    0.0000 N   0  0  0  0  0  0  0  0  0  0  0  0
    3.5723   -3.7125    0.0000 C   0  0  0  0  0  0  0  0  0  0  0  0
    4.2868   -4.1250    0.0000 C   0  0  0  0  0  0  0  0  0  0  0  0
    5.0013   -3.7125    0.0000 C   0  0  0  0  0  0  0  0  0  0  0  0
    5.7157   -4.1250    0.0000 C   0  0  0  0  0  0  0  0  0  0  0  0
    6.4302   -3.7125    0.0000 C   0  0  0  0  0  0  0  0  0  0  0  0
    7.1447   -4.1250    0.0000 C   0  0  0  0  0  0  0  0  0  0  0  0
    7.1447   -4.9500    0.0000 C   0  0  0  0  0  0  0  0  0  0  0  0
    6.4302   -5.3625    0.0000 C   0  0  0  0  0  0  0  0  0  0  0  0
    5.7157   -4.9500    0.0000 C   0  0  0  0  0  0  0  0  0  0  0  0
    3.5723   -2.8875    0.0000 C   0  0  0  0  0  0  0  0  0  0  0  0
    4.2868   -2.4750    0.0000 C   0  0  0  0  0  0  0  0  0  0  0  0
    2.8578   -2.4750    0.0000 N   0  0  0  0  0  0  0  0  0  0  0  0
    1.4289   -4.9500    0.0000 C   0  0  0  0  0  0  0  0  0  0  0  0
    0.7144   -5.3625    0.0000 C   0  0  0  0  0  0  0  0  0  0  0  0
    0.0000   -4.9500    0.0000 C   0  0  0  0  0  0  0  0  0  0  0  0
   -0.7144   -5.3625    0.0000 S   0  0  0  0  0  0  0  0  0  0  0  0
   -1.4289   -5.7750    0.0000 C   0  0  0  0  0  0  0  0  0  0  0  0
   -1.1269   -4.6480    0.0000 O   0  0  0  0  0  0  0  0  0  0  0  0
   -0.3019   -6.0769    0.0000 O   0  0  0  0  0  0  0  0  0  0  0  0
  1  2  1  0  0  0  0
  2  3  1  0  0  0  0
  3  4  2  0  0  0  0
  4  5  1  0  0  0  0
  5  6  1  0  0  0  0
  6  7  1  0  0  0  0
  7  8  1  0  0  0  0
  8  9  1  0  0  0  0
  9 10  1  0  0  0  0
 10 11  1  0  0  0  0
 11 12  2  0  0  0  0
 12 13  1  0  0  0  0
 13 14  2  0  0  0  0
 14 15  1  0  0  0  0
 15 16  2  0  0  0  0
 11 16  1  0  0  0  0
  8 17  1  0  0  0  0
 17 18  1  0  0  0  0
 17 19  1  0  0  0  0
  5 20  2  0  0  0  0
 20 21  1  0  0  0  0
 21 22  2  0  0  0  0
  3 22  1  0  0  0  0
 22 23  1  0  0  0  0
 23 24  1  0  0  0  0
 23 25  2  0  0  0  0
 23 26  2  0  0  0  0
M  END
