Z4415557415
  MJ210100                      

 24 25  0  0  0  0  0  0  0  0999 V2000
   -2.8578   -1.6500    0.0000 C   0  0  0  0  0  0  0  0  0  0  0  0
   -2.1433   -1.2375    0.0000 O   0  0  0  0  0  0  0  0  0  0  0  0
   -1.4289   -1.6500    0.0000 C   0  0  0  0  0  0  0  0  0  0  0  0
   -0.7144   -1.2375    0.0000 C   0  0  0  0  0  0  0  0  0  0  0  0
    0.0000   -1.6500    0.0000 C   0  0  0  0  0  0  0  0  0  0  0  0
    0.0000   -2.4750    0.0000 C   0  0  0  0  0  0  0  0  0  0  0  0
    0.7144   -2.8875    0.0000 C   0  0  0  0  0  0  0  0  0  0  0  0
    1.4289   -2.4750    0.0000 N   0  0  0  0  0  0  0  0  0  0  0  0
    2.1433   -2.8875    0.0000 C   0  0  0  0  0  0  0  0  0  0  0  0
    2.1433   -3.7125    0.0000 C   0  0  0  0  0  0  0  0  0  0  0  0
    2.8578   -2.4750    0.0000 C   0  0  0  0  0  0  0  0  0  0  0  0
    3.5723   -2.8875    0.0000 C   0  0  0  0  0  0  0  0  0  0  0  0
    4.2868   -2.4750    0.0000 C   0  0  0  0  0  0  0  0  0  0  0  0
    5.0013   -2.8875    0.0000 C   0  0  0  0  0  0  0  0  0  0  0  0
    5.0013   -3.7125    0.0000 C   0  0  0  0  0  0  0  0  0  0  0  0
    4.2868   -4.1250    0.0000 C   0  0  0  0  0  0  0  0  0  0  0  0
    3.5723   -3.7125    0.0000 C   0  0  0  0  0  0  0  0  0  0  0  0
    5.7157   -4.1250    0.0000 N   0  0  0  0  0  0  0  0  0  0  0  0
    6.4302   -3.7125    0.0000 C   0  0  0  0  0  0  0  0  0  0  0  0
    5.7157   -4.9500    0.0000 C   0  0  0  0  0  0  0  0  0  0  0  0
   -0.7144   -2.8875    0.0000 C   0  0  0  0  0  0  0  0  0  0  0  0
   -0.7144   -3.7125    0.0000 O   0  0  0  0  0  0  0  0  0  0  0  0
   -1.4289   -2.4750    0.0000 C   0  0  0  0  0  0  0  0  0  0  0  0
   -2.1433   -2.8875    0.0000 F   0  0  0  0  0  0  0  0  0  0  0  0
  1  2  1  0  0  0  0
  2  3  1  0  0  0  0
  3  4  2  0  0  0  0
  4  5  1  0  0  0  0
  5  6  2  0  0  0  0
  6  7  1  0  0  0  0
  7  8  1  0  0  0  0
  8  9  1  0  0  0  0
  9 10  1  0  0  0  0
  9 11  1  0  0  0  0
 11 12  1  0  0  0  0
 12 13  2  0  0  0  0
 13 14  1  0  0  0  0
 14 15  2  0  0  0  0
 15 16  1  0  0  0  0
 16 17  2  0  0  0  0
 12 17  1  0  0  0  0
 15 18  1  0  0  0  0
 18 19  1  0  0  0  0
 18 20  1  0  0  0  0
  6 21  1  0  0  0  0
 21 22  1  0  0  0  0
 21 23  2  0  0  0  0
  3 23  1  0  0  0  0
 23 24  1  0  0  0  0
M  END
