Z8718594710
  MJ210100                      

 25 27  0  0  0  0  0  0  0  0999 V2000
    3.6584   -3.2576    0.0000 C   0  0  0  0  0  0  0  0  0  0  0  0
    3.6584   -2.4326    0.0000 C   0  0  0  0  0  0  0  0  0  0  0  0
    2.9439   -2.0201    0.0000 N   0  0  0  0  0  0  0  0  0  0  0  0
    2.2294   -2.4326    0.0000 C   0  0  0  0  0  0  0  0  0  0  0  0
    1.5150   -2.0201    0.0000 C   0  0  0  0  0  0  0  0  0  0  0  0
    0.7613   -2.3557    0.0000 C   0  0  0  0  0  0  0  0  0  0  0  0
    0.2093   -1.7426    0.0000 C   0  0  0  0  0  0  0  0  0  0  0  0
   -0.6156   -1.7426    0.0000 C   0  0  0  0  0  0  0  0  0  0  0  0
   -1.0281   -2.4571    0.0000 C   0  0  0  0  0  0  0  0  0  0  0  0
   -1.0281   -1.0281    0.0000 C   0  0  0  0  0  0  0  0  0  0  0  0
   -0.6156   -0.3137    0.0000 C   0  0  0  0  0  0  0  0  0  0  0  0
   -1.0281    0.4007    0.0000 C   0  0  0  0  0  0  0  0  0  0  0  0
    0.2093   -0.3137    0.0000 C   0  0  0  0  0  0  0  0  0  0  0  0
    0.6218   -1.0281    0.0000 C   0  0  0  0  0  0  0  0  0  0  0  0
    1.4288   -1.1996    0.0000 N   0  0  0  0  0  0  0  0  0  0  0  0
    4.3729   -2.0201    0.0000 C   0  0  0  0  0  0  0  0  0  0  0  0
    4.3729   -1.1951    0.0000 O   0  0  0  0  0  0  0  0  0  0  0  0
    5.0874   -2.4326    0.0000 C   0  0  0  0  0  0  0  0  0  0  0  0
    5.8018   -2.0201    0.0000 C   0  0  0  0  0  0  0  0  0  0  0  0
    6.5163   -2.4326    0.0000 C   0  0  0  0  0  0  0  0  0  0  0  0
    6.5163   -3.2576    0.0000 C   0  0  0  0  0  0  0  0  0  0  0  0
    7.2308   -3.6701    0.0000 C   0  0  0  0  0  0  0  0  0  0  0  0
    5.8018   -3.6701    0.0000 C   0  0  0  0  0  0  0  0  0  0  0  0
    5.8018   -4.4951    0.0000 F   0  0  0  0  0  0  0  0  0  0  0  0
    5.0874   -3.2576    0.0000 C   0  0  0  0  0  0  0  0  0  0  0  0
  1  2  1  0  0  0  0
  2  3  1  0  0  0  0
  3  4  1  0  0  0  0
  4  5  1  0  0  0  0
  5  6  2  0  0  0  0
  6  7  1  0  0  0  0
  7  8  2  0  0  0  0
  8  9  1  0  0  0  0
  8 10  1  0  0  0  0
 10 11  2  0  0  0  0
 11 12  1  0  0  0  0
 11 13  1  0  0  0  0
 13 14  2  0  0  0  0
  7 14  1  0  0  0  0
 14 15  1  0  0  0  0
  5 15  1  0  0  0  0
  2 16  1  0  0  0  0
 16 17  1  0  0  0  0
 16 18  1  0  0  0  0
 18 19  2  0  0  0  0
 19 20  1  0  0  0  0
 20 21  2  0  0  0  0
 21 22  1  0  0  0  0
 21 23  1  0  0  0  0
 23 24  1  0  0  0  0
 23 25  2  0  0  0  0
 18 25  1  0  0  0  0
M  END
