Z8718594704
  MJ210100                      

 25 26  0  0  0  0  0  0  0  0999 V2000
   -0.1174   -3.5925    0.0000 C   0  0  0  0  0  0  0  0  0  0  0  0
   -0.9020   -3.8475    0.0000 C   0  0  0  0  0  0  0  0  0  0  0  0
   -1.0736   -4.6545    0.0000 C   0  0  0  0  0  0  0  0  0  0  0  0
   -1.5151   -3.2955    0.0000 C   0  0  0  0  0  0  0  0  0  0  0  0
   -2.3221   -3.4669    0.0000 N   0  0  0  0  0  0  0  0  0  0  0  0
   -2.7346   -2.7525    0.0000 N   0  0  0  0  0  0  0  0  0  0  0  0
   -2.1826   -2.1394    0.0000 C   0  0  0  0  0  0  0  0  0  0  0  0
   -1.4289   -2.4750    0.0000 C   0  0  0  0  0  0  0  0  0  0  0  0
   -0.7144   -2.0625    0.0000 C   0  0  0  0  0  0  0  0  0  0  0  0
    0.0000   -2.4750    0.0000 N   0  0  0  0  0  0  0  0  0  0  0  0
    0.7144   -2.0625    0.0000 C   0  0  0  0  0  0  0  0  0  0  0  0
    1.4289   -2.4750    0.0000 C   0  0  0  0  0  0  0  0  0  0  0  0
    2.1433   -2.0625    0.0000 C   0  0  0  0  0  0  0  0  0  0  0  0
    2.1433   -1.2375    0.0000 C   0  0  0  0  0  0  0  0  0  0  0  0
    1.4289   -0.8250    0.0000 F   0  0  0  0  0  0  0  0  0  0  0  0
    2.8578   -0.8250    0.0000 C   0  0  0  0  0  0  0  0  0  0  0  0
    3.5723   -1.2375    0.0000 C   0  0  0  0  0  0  0  0  0  0  0  0
    4.2868   -0.8250    0.0000 O   0  0  0  0  0  0  0  0  0  0  0  0
    3.5723   -2.0625    0.0000 C   0  0  0  0  0  0  0  0  0  0  0  0
    2.8578   -2.4750    0.0000 C   0  0  0  0  0  0  0  0  0  0  0  0
    2.8578   -3.3000    0.0000 F   0  0  0  0  0  0  0  0  0  0  0  0
   -3.5551   -2.6663    0.0000 C   0  0  0  0  0  0  0  0  0  0  0  0
   -4.3756   -2.5800    0.0000 C   0  0  0  0  0  0  0  0  0  0  0  0
   -3.4689   -1.8458    0.0000 C   0  0  0  0  0  0  0  0  0  0  0  0
   -3.6413   -3.4868    0.0000 C   0  0  0  0  0  0  0  0  0  0  0  0
  1  2  1  0  0  0  0
  2  3  1  0  0  0  0
  2  4  1  0  0  0  0
  4  5  2  0  0  0  0
  5  6  1  0  0  0  0
  6  7  1  0  0  0  0
  7  8  2  0  0  0  0
  4  8  1  0  0  0  0
  8  9  1  0  0  0  0
  9 10  1  0  0  0  0
 10 11  1  0  0  0  0
 11 12  1  0  0  0  0
 12 13  1  0  0  0  0
 13 14  2  0  0  0  0
 14 15  1  0  0  0  0
 14 16  1  0  0  0  0
 16 17  2  0  0  0  0
 17 18  1  0  0  0  0
 17 19  1  0  0  0  0
 19 20  2  0  0  0  0
 13 20  1  0  0  0  0
 20 21  1  0  0  0  0
  6 22  1  0  0  0  0
 22 23  1  0  0  0  0
 22 24  1  0  0  0  0
 22 25  1  0  0  0  0
M  END
