Z8718594701
  MJ210100                      

 23 25  0  0  1  0  0  0  0  0999 V2000
    7.0380   -0.0616    0.0000 C   0  0  0  0  0  0  0  0  0  0  0  0
    6.3235   -0.4741    0.0000 C   0  0  0  0  0  0  0  0  0  0  0  0
    6.3235   -1.2991    0.0000 C   0  0  0  0  0  0  0  0  0  0  0  0
    5.6090   -1.7116    0.0000 C   0  0  0  0  0  0  0  0  0  0  0  0
    5.6090   -2.5366    0.0000 C   0  0  0  0  0  0  0  0  0  0  0  0
    4.8946   -2.9491    0.0000 N   0  0  0  0  0  0  0  0  0  0  0  0
    4.8946   -3.7741    0.0000 C   0  0  0  0  0  0  0  0  0  0  0  0
    5.5620   -4.2590    0.0000 C   0  0  0  0  0  0  0  0  0  0  0  0
    5.3071   -5.0436    0.0000 C   0  0  0  0  0  0  0  0  0  0  0  0
    4.4821   -5.0436    0.0000 C   0  0  0  0  0  0  0  0  0  0  0  0
    4.2271   -4.2590    0.0000 C   0  0  0  0  0  0  0  0  0  0  0  0
    3.4425   -4.0040    0.0000 C   0  0  0  0  0  0  0  0  0  0  0  0
    2.8294   -4.5561    0.0000 N   0  0  0  0  0  0  0  0  0  0  0  0
    4.8946   -1.2991    0.0000 C   0  0  0  0  0  0  0  0  0  0  0  0
    4.8946   -0.4741    0.0000 C   0  0  0  0  0  0  0  0  0  0  0  0
    5.6090   -0.0616    0.0000 C   0  0  0  0  0  0  0  0  0  0  0  0
    5.6090    0.7633    0.0000 O   0  0  0  0  0  0  0  0  0  0  0  0
    6.3235    1.1758    0.0000 C   0  0  0  0  0  0  0  0  0  0  0  0
    6.3235    2.0008    0.0000 C   0  0  0  0  0  0  0  0  0  0  0  0
    7.0380    2.4133    0.0000 C   0  0  0  0  0  0  0  0  0  0  0  0
    7.7524    2.0008    0.0000 C   0  0  0  0  0  0  0  0  0  0  0  0
    7.7524    1.1758    0.0000 N   0  0  0  0  0  0  0  0  0  0  0  0
    7.0380    0.7633    0.0000 C   0  0  0  0  0  0  0  0  0  0  0  0
  1  2  1  0  0  0  0
  2  3  2  0  0  0  0
  3  4  1  0  0  0  0
  4  5  1  0  0  0  0
  5  6  1  0  0  0  0
  7  6  1  1  0  0  0
  7  8  1  0  0  0  0
  8  9  1  0  0  0  0
  9 10  1  0  0  0  0
 11 10  1  0  0  0  0
  7 11  1  0  0  0  0
 11 12  1  6  0  0  0
 12 13  1  0  0  0  0
  4 14  2  0  0  0  0
 14 15  1  0  0  0  0
 15 16  2  0  0  0  0
  2 16  1  0  0  0  0
 16 17  1  0  0  0  0
 17 18  1  0  0  0  0
 18 19  2  0  0  0  0
 19 20  1  0  0  0  0
 20 21  2  0  0  0  0
 21 22  1  0  0  0  0
 22 23  2  0  0  0  0
 18 23  1  0  0  0  0
M  END
