Z8739902231
  MJ210100                      

 23 24  0  0  1  0  0  0  0  0999 V2000
    4.2553   -5.4880    0.0000 C   0  0  0  0  0  0  0  0  0  0  0  0
    4.9697   -5.0755    0.0000 C   0  0  0  0  0  0  0  0  0  0  0  0
    4.9697   -4.2505    0.0000 C   0  0  0  0  0  0  0  0  0  0  0  0
    5.6842   -5.4880    0.0000 C   0  0  0  0  0  0  0  0  0  0  0  0
    5.6842   -6.3130    0.0000 N   0  0  0  0  0  0  0  0  0  0  0  0
    6.3987   -5.0755    0.0000 C   0  0  0  0  0  0  0  0  0  0  0  0
    7.1132   -5.4880    0.0000 N   0  0  0  0  0  0  0  0  0  0  0  0
    7.8276   -5.0755    0.0000 C   0  0  0  0  0  0  0  0  0  0  0  0
    8.5421   -5.4880    0.0000 C   0  0  0  0  0  0  0  0  0  0  0  0
    9.2958   -5.1524    0.0000 C   0  0  0  0  0  0  0  0  0  0  0  0
    9.4673   -4.3455    0.0000 C   0  0  0  0  0  0  0  0  0  0  0  0
    9.8478   -5.7655    0.0000 N   0  0  0  0  0  0  0  0  0  0  0  0
   10.6683   -5.6793    0.0000 C   0  0  0  0  0  0  0  0  0  0  0  0
   11.1532   -6.3467    0.0000 C   0  0  0  0  0  0  0  0  0  0  0  0
   11.9737   -6.2605    0.0000 C   0  0  0  0  0  0  0  0  0  0  0  0
   12.4586   -6.9279    0.0000 C   0  0  0  0  0  0  0  0  0  0  0  0
   12.1231   -7.6816    0.0000 C   0  0  0  0  0  0  0  0  0  0  0  0
   12.6080   -8.3490    0.0000 C   0  0  0  0  0  0  0  0  0  0  0  0
   11.3026   -7.7678    0.0000 C   0  0  0  0  0  0  0  0  0  0  0  0
   10.8176   -7.1004    0.0000 C   0  0  0  0  0  0  0  0  0  0  0  0
    9.4353   -6.4800    0.0000 N   0  0  0  0  0  0  0  0  0  0  0  0
    8.6283   -6.3084    0.0000 C   0  0  0  0  0  0  0  0  0  0  0  0
    8.0153   -6.8605    0.0000 C   0  0  0  0  0  0  0  0  0  0  0  0
  1  2  1  0  0  0  0
  2  3  1  0  0  0  0
  4  2  1  0  0  0  0
  4  5  1  6  0  0  0
  4  6  1  0  0  0  0
  6  7  1  0  0  0  0
  7  8  1  0  0  0  0
  8  9  1  0  0  0  0
  9 10  2  0  0  0  0
 10 11  1  0  0  0  0
 10 12  1  0  0  0  0
 12 13  1  0  0  0  0
 13 14  1  0  0  0  0
 14 15  2  0  0  0  0
 15 16  1  0  0  0  0
 16 17  2  0  0  0  0
 17 18  1  0  0  0  0
 17 19  1  0  0  0  0
 19 20  2  0  0  0  0
 14 20  1  0  0  0  0
 12 21  1  0  0  0  0
 21 22  2  0  0  0  0
  9 22  1  0  0  0  0
 22 23  1  0  0  0  0
M  END
