
##########                                Name:          HYZ_1_2RGP
##########                    Molecular_Weight:             446.531
##########                DOCK_Rotatable_Bonds:                   7
##########                       Formal_Charge:         0.000200018
##########                     HBond_Acceptors:                   9
##########                        HBond_Donors:                   4
##########                         Heavy_Atoms:                  33
##########                            HA_RMSDs:               0.386
##########                            HA_RMSDh:               0.386
##########                            HA_RMSDm:               0.386
##########                          Grid_Score:          -77.710983
##########                     Grid_vdw_energy:          -76.144699
##########                      Grid_es_energy:           -1.566285
##########           Internal_energy_repulsive:           10.886127

@<TRIPOS>MOLECULE
HYZ_1_2RGP
 60 64 1 0 0
SMALL
USER_CHARGES


@<TRIPOS>ATOM
      1 C1         15.7982   39.9223   97.8597 C.ar    1  <0>        -0.0587
      2 C2         16.6616   38.7875   97.8792 C.ar    1  <0>        -0.0568
      3 C3         14.5436   39.8547   97.1958 C.ar    1  <0>        -0.0264
      4 C4         17.5311   35.6218   92.7108 C.ar    1  <0>        -0.0387
      5 C5         17.5787   35.9964   94.0691 C.ar    1  <0>        -0.0365
      6 C6         14.9995   37.5291   96.5717 C.ar    1  <0>        -0.0217
      7 C7         16.0446   33.7282   93.2326 C.ar    1  <0>        -0.0300
      8 C8         15.5073   33.5985   95.7930 C.2     1  <0>         0.0548
      9 C9         13.3100   34.1855   89.9212 C.ar    1  <0>         0.1201
     10 C10        21.1371   31.4275   85.6283 C.3     1  <0>        -0.0507
     11 C11        20.0932   32.2133   84.8284 C.3     1  <0>        -0.0388
     12 C12        21.0793   31.7948   87.1144 C.3     1  <0>        -0.0388
     13 C13        18.6882   32.0783   85.4470 C.3     1  <0>         0.0137
     14 C14        19.6529   31.6512   87.6809 C.3     1  <0>         0.0137
     15 C15        17.0414   33.4086   88.0688 C.3     1  <0>         0.0425
     16 C16        17.2002   36.3318   97.2476 C.3     1  <0>         0.0601
     17 C17        16.2775   37.5690   97.2359 C.ar    1  <0>        -0.0255
     18 C18        16.7748   34.5061   92.2772 C.ar    1  <0>         0.0331
     19 C19        14.1558   38.6568   96.5573 C.ar    1  <0>         0.1237
     20 C20        16.8360   35.2055   94.9963 C.ar    1  <0>         0.0606
     21 C21        16.0773   34.0896   94.6017 C.ar    1  <0>         0.0191
     22 C22        15.7437   33.6699   88.7222 C.ar    1  <0>         0.0472
     23 C23        14.5120   33.5486   88.0306 C.ar    1  <0>         0.1256
     24 C24        15.6640   34.0549   90.0595 C.ar    1  <0>         0.1324
     25 N1         14.4335   33.1705   86.7060 N.pl3   1  <0>        -0.3428
     26 N2         15.8399   34.3206   96.8624 N.2     1  <0>        -0.1868
     27 N3         13.3003   33.8082   88.6249 N.ar    1  <0>        -0.2207
     28 N4         14.4424   34.3199   90.6674 N.ar    1  <0>        -0.2202
     29 N5         17.3662   32.3324   87.4240 N.3     1  <0>        -0.2494
     30 N6         16.7525   34.2224   90.9192 N.pl3   1  <0>        -0.2990
     31 N7         16.6461   35.3008   96.3548 N.pl3   1  <0>        -0.2195
     32 N8         18.6315   32.4503   86.9033 N.3     1  <0>        -0.2426
     33 F1         12.9667   38.5804   95.9249 F       1  <0>        -0.2055
     34 H1         16.0987   40.8360   98.3509 H       1  <0>         0.0619
     35 H2         17.6142   38.8486   98.3844 H       1  <0>         0.0621
     36 H3         13.8905   40.7148   97.1798 H       1  <0>         0.0646
     37 H4         18.0841   36.1991   91.9845 H       1  <0>         0.0637
     38 H5         18.1552   36.8493   94.3956 H       1  <0>         0.0637
     39 H6         14.6842   36.6217   96.0779 H       1  <0>         0.0649
     40 H7         15.4721   32.8708   92.9108 H       1  <0>         0.0643
     41 H8         14.8685   32.7287   95.8349 H       1  <0>         0.0852
     42 H9         12.3625   34.3935   90.3958 H       1  <0>         0.1048
     43 H10        20.9370   30.3516   85.5177 H       1  <0>         0.0266
     44 H11        22.1385   31.6651   85.2399 H       1  <0>         0.0266
     45 H12        20.3773   33.2759   84.8225 H       1  <0>         0.0278
     46 H13        20.0669   31.8227   83.8003 H       1  <0>         0.0278
     47 H14        21.7500   31.1235   87.6708 H       1  <0>         0.0278
     48 H15        21.4036   32.8392   87.2333 H       1  <0>         0.0278
     49 H16        18.0074   32.7447   84.8973 H       1  <0>         0.0441
     50 H17        18.3714   31.0294   85.3497 H       1  <0>         0.0441
     51 H18        19.3680   30.5896   87.6389 H       1  <0>         0.0441
     52 H19        19.6548   32.0092   88.7210 H       1  <0>         0.0441
     53 H20        17.1365   34.2114   87.3229 H       1  <0>         0.0489
     54 H21        17.7741   33.4666   88.8872 H       1  <0>         0.0489
     55 H22        18.2034   36.6185   96.8993 H       1  <0>         0.0534
     56 H23        17.2678   35.9336   98.2708 H       1  <0>         0.0534
     57 H24        13.4756   33.1565   86.4191 H       1  <0>         0.1437
     58 H25        14.9405   33.8230   86.1427 H       1  <0>         0.1437
     59 H26        17.3403   31.5536   88.0508 H       1  <0>         0.1411
     60 H27        17.6509   34.1227   90.4913 H       1  <0>         0.1536
@<TRIPOS>BOND
     1     1     2   ar
     2     1     3   ar
     3     2    17   ar
     4     3    19   ar
     5     4     5   ar
     6     4    18   ar
     7     5    20   ar
     8     6    17   ar
     9     6    19   ar
    10     7    18   ar
    11     7    21   ar
    12     8    21    1
    13     8    26    2
    14     9    27   ar
    15     9    28   ar
    16    10    11    1
    17    10    12    1
    18    11    13    1
    19    12    14    1
    20    13    32    1
    21    14    32    1
    22    15    22    1
    23    15    29    1
    24    16    17    1
    25    16    31    1
    26    18    30    1
    27    19    33    1
    28    20    21   ar
    29    20    31    1
    30    22    23   ar
    31    22    24   ar
    32    23    25    1
    33    23    27   ar
    34    24    28   ar
    35    24    30    1
    36    26    31    1
    37    29    32    1
    38     1    34    1
    39     2    35    1
    40     3    36    1
    41     4    37    1
    42     5    38    1
    43     6    39    1
    44     7    40    1
    45     8    41    1
    46     9    42    1
    47    10    43    1
    48    10    44    1
    49    11    45    1
    50    11    46    1
    51    12    47    1
    52    12    48    1
    53    13    49    1
    54    13    50    1
    55    14    51    1
    56    14    52    1
    57    15    53    1
    58    15    54    1
    59    16    55    1
    60    16    56    1
    61    25    57    1
    62    25    58    1
    63    29    59    1
    64    30    60    1
@<TRIPOS>SUBSTRUCTURE
     1 <0>         1 TEMP              0 ****  ****    0 ROOT

