
##########                                Name:        BRE_397_1D3G
##########                    Molecular_Weight:             356.376
##########                DOCK_Rotatable_Bonds:                   3
##########                       Formal_Charge:             -0.9997
##########                     HBond_Acceptors:                   4
##########                        HBond_Donors:                   0
##########                         Heavy_Atoms:                  27
##########                            HA_RMSDs:               0.254
##########                            HA_RMSDh:               0.254
##########                            HA_RMSDm:               0.254
##########                          Grid_Score:           29.392292
##########                     Grid_vdw_energy:          -34.876812
##########                      Grid_es_energy:           64.269104
##########           Internal_energy_repulsive:           19.827957

@<TRIPOS>MOLECULE
BRE_397_1D3G
 42 45 1 0 0
SMALL
USER_CHARGES


@<TRIPOS>ATOM
      1 C1         49.7678   43.5323   -5.1150 C.3     1  <0>        -0.0370
      2 C2         56.2495   48.3598   -0.4859 C.ar    1  <0>        -0.0617
      3 C3         55.6917   47.4641    0.4081 C.ar    1  <0>        -0.0612
      4 C4         55.7399   48.4596   -1.7632 C.ar    1  <0>        -0.0612
      5 C5         54.6526   46.6471   -0.0073 C.ar    1  <0>        -0.0540
      6 C6         54.7053   47.6434   -2.1975 C.ar    1  <0>        -0.0540
      7 C7         53.1538   45.0142   -2.8807 C.ar    1  <0>        -0.0534
      8 C8         51.9290   45.5031   -0.8790 C.ar    1  <0>        -0.0534
      9 C9         52.2560   44.0446   -3.2693 C.ar    1  <0>        -0.0520
     10 C10        51.0115   44.5372   -1.2590 C.ar    1  <0>        -0.0520
     11 C11        48.0965   38.8910   -0.8771 C.ar    1  <0>        -0.0244
     12 C12        48.9950   39.9418   -0.8145 C.ar    1  <0>        -0.0330
     13 C13        47.5920   39.5241   -3.1391 C.ar    1  <0>        -0.0166
     14 C14        49.5743   42.5533   -3.9759 C.ar    1  <0>        -0.0150
     15 C15        54.1118   46.7648   -1.2986 C.ar    1  <0>        -0.0179
     16 C16        53.0189   45.7662   -1.7247 C.ar    1  <0>        -0.0178
     17 C17        51.1633   43.8216   -2.4246 C.ar    1  <0>         0.0007
     18 C18        47.3816   38.6982   -2.0495 C.ar    1  <0>         0.1241
     19 C19        49.2068   40.7762   -1.9074 C.ar    1  <0>         0.0725
     20 C20        48.5053   40.5715   -3.0895 C.ar    1  <0>         0.0122
     21 C21        48.7154   41.4701   -4.1358 C.ar    1  <0>         0.0115
     22 C22        50.2122   42.7247   -2.7619 C.ar    1  <0>         0.0752
     23 C23        48.0370   41.2654   -5.4636 C.2     1  <0>         0.0726
     24 N1         50.0577   41.8053   -1.7697 N.ar    1  <0>        -0.2464
     25 O1         48.8549   41.0022   -6.5033 O.co2   1  <0>        -0.5446
     26 O2         46.8543   41.3218   -5.6403 O.co2   1  <0>        -0.5446
     27 F1         46.5191   37.8083   -2.0911 F       1  <0>        -0.2055
     28 H1         49.0193   44.3350   -5.0405 H       1  <0>         0.0278
     29 H2         50.7772   43.9659   -5.0582 H       1  <0>         0.0278
     30 H3         49.6476   43.0072   -6.0740 H       1  <0>         0.0278
     31 H4         57.0815   48.9790   -0.1845 H       1  <0>         0.0618
     32 H5         56.0627   47.4019    1.4205 H       1  <0>         0.0618
     33 H6         56.1557   49.1901   -2.4414 H       1  <0>         0.0618
     34 H7         54.2523   45.9089    0.6718 H       1  <0>         0.0624
     35 H8         54.3653   47.6902   -3.2215 H       1  <0>         0.0624
     36 H9         54.0104   45.1986   -3.5120 H       1  <0>         0.0624
     37 H10        51.8086   46.0428    0.0487 H       1  <0>         0.0624
     38 H11        52.3893   43.4833   -4.1824 H       1  <0>         0.0624
     39 H12        50.1582   44.3414   -0.6265 H       1  <0>         0.0624
     40 H13        47.9551   38.2351   -0.0308 H       1  <0>         0.0647
     41 H14        49.5420   40.1175    0.1000 H       1  <0>         0.0640
     42 H15        47.0347   39.3517   -4.0480 H       1  <0>         0.0653
@<TRIPOS>BOND
     1     1    14    1
     2     2     3   ar
     3     2     4   ar
     4     3     5   ar
     5     4     6   ar
     6     5    15   ar
     7     6    15   ar
     8     7     9   ar
     9     7    16   ar
    10     8    10   ar
    11     8    16   ar
    12     9    17   ar
    13    10    17   ar
    14    11    12   ar
    15    11    18   ar
    16    12    19   ar
    17    13    18   ar
    18    13    20   ar
    19    14    21   ar
    20    14    22   ar
    21    15    16    1
    22    17    22    1
    23    18    27    1
    24    19    20   ar
    25    19    24   ar
    26    20    21   ar
    27    21    23    1
    28    22    24   ar
    29    23    25    1
    30    23    26    2
    31     1    28    1
    32     1    29    1
    33     1    30    1
    34     2    31    1
    35     3    32    1
    36     4    33    1
    37     5    34    1
    38     6    35    1
    39     7    36    1
    40     8    37    1
    41     9    38    1
    42    10    39    1
    43    11    40    1
    44    12    41    1
    45    13    42    1
@<TRIPOS>SUBSTRUCTURE
     1 <0>         1 TEMP              0 ****  ****    0 ROOT

