
##########                                Name:          A49_2_3FRJ
##########                    Molecular_Weight:             454.513
##########                DOCK_Rotatable_Bonds:                  11
##########                       Formal_Charge:              0.9997
##########                     HBond_Acceptors:                   9
##########                        HBond_Donors:                   4
##########                         Heavy_Atoms:                  32
##########                            HA_RMSDs:               0.192
##########                            HA_RMSDh:               0.192
##########                            HA_RMSDm:               0.192
##########                          Grid_Score:         -116.671814
##########                     Grid_vdw_energy:          -68.774078
##########                      Grid_es_energy:          -47.897736
##########           Internal_energy_repulsive:           24.353121

@<TRIPOS>MOLECULE
A49_2_3FRJ
 63 66 1 0 0
SMALL
USER_CHARGES


@<TRIPOS>ATOM
      1 C1         51.1794   28.7672   41.9536 C.3     1  <0>        -0.0233
      2 C2         52.9143   24.8147   41.9888 C.ar    1  <0>        -0.0493
      3 C3         51.3118   24.3479   40.2181 C.ar    1  <0>        -0.0493
      4 C4         52.6734   26.1885   41.8649 C.ar    1  <0>        -0.0549
      5 C5         51.0966   25.6924   40.0406 C.ar    1  <0>        -0.0549
      6 C6         51.6152   19.4981   40.4772 C.3     1  <0>        -0.0326
      7 C7         52.4905   19.4124   39.2553 C.3     1  <0>        -0.0326
      8 C8         55.4135   21.6171   39.8080 C.3     1  <0>         0.0063
      9 C9         53.5641   22.4871   38.1887 C.3     1  <0>         0.0063
     10 C10        59.3459   22.7444   37.4791 C.3     1  <0>        -0.0330
     11 C11        59.2860   23.2575   36.0331 C.3     1  <0>        -0.0330
     12 C12        56.3614   22.5326   39.0416 C.3     1  <0>        -0.0301
     13 C13        54.6428   23.2042   37.4254 C.3     1  <0>        -0.0301
     14 C14        56.8932   23.1696   36.7103 C.3     1  <0>        -0.0177
     15 C15        52.2438   23.9093   41.1811 C.ar    1  <0>         0.0369
     16 C16        51.7659   26.6024   40.8604 C.ar    1  <0>        -0.0077
     17 C17        53.0112   20.1168   40.5172 C.3     1  <0>         0.0267
     18 C18        54.0341   22.2734   39.6611 C.3     1  <0>         0.0362
     19 C19        52.3618   22.4206   41.3187 C.2     1  <0>         0.2471
     20 C20        58.1132   20.9889   36.0255 C.2     1  <0>         0.2218
     21 C21        58.1735   22.3878   36.6033 C.3     1  <0>         0.0864
     22 C22        51.4762   28.0622   40.6359 C.3     1  <0>         0.1828
     23 C23        52.6711   28.6820   39.9351 C.3     1  <0>         0.4221
     24 N1         59.2275   20.4280   35.6801 N.am    1  <0>        -0.3287
     25 N2         55.9247   22.4820   37.5854 N.4     1  <0>         0.2361
     26 N3         52.9202   21.6055   40.2961 N.am    1  <0>        -0.2911
     27 O1         50.3628   28.2108   39.7306 O.3     1  <0>        -0.3758
     28 O2         51.7541   21.9003   42.2538 O.2     1  <0>        -0.2700
     29 O3         57.0507   20.3716   35.9733 O.2     1  <0>        -0.2752
     30 F1         52.8953   28.0410   38.8106 F       1  <0>        -0.1673
     31 F2         53.7930   28.6390   40.6413 F       1  <0>        -0.1673
     32 F3         52.2611   29.8947   39.7122 F       1  <0>        -0.1673
     33 H1         50.9714   29.8304   41.7625 H       1  <0>         0.0263
     34 H2         50.3032   28.3020   42.4289 H       1  <0>         0.0263
     35 H3         52.0493   28.6781   42.6209 H       1  <0>         0.0263
     36 H4         53.6268   24.4584   42.7179 H       1  <0>         0.0625
     37 H5         50.7691   23.6289   39.6223 H       1  <0>         0.0625
     38 H6         53.1609   26.9041   42.5104 H       1  <0>         0.0621
     39 H7         50.4181   26.0414   39.2763 H       1  <0>         0.0621
     40 H8         50.6264   19.9598   40.6150 H       1  <0>         0.0284
     41 H9         51.1700   18.7025   41.0926 H       1  <0>         0.0284
     42 H10        52.8773   18.5394   38.7092 H       1  <0>         0.0284
     43 H11        52.3363   19.7907   38.2340 H       1  <0>         0.0284
     44 H12        55.4157   20.6016   39.3851 H       1  <0>         0.0335
     45 H13        55.7053   21.5415   40.8659 H       1  <0>         0.0335
     46 H14        52.6437   23.0892   38.1795 H       1  <0>         0.0335
     47 H15        53.3669   21.5119   37.7196 H       1  <0>         0.0335
     48 H16        60.0852   22.1072   37.9864 H       1  <0>         0.0277
     49 H17        59.3913   23.2883   38.4342 H       1  <0>         0.0277
     50 H18        59.2748   24.2778   35.6222 H       1  <0>         0.0277
     51 H19        59.9622   23.1077   35.1784 H       1  <0>         0.0277
     52 H20        56.2992   23.5610   39.4269 H       1  <0>         0.0815
     53 H21        57.4000   22.1851   39.1446 H       1  <0>         0.0815
     54 H22        54.3741   23.2422   36.3593 H       1  <0>         0.0815
     55 H23        54.7480   24.2279   37.8139 H       1  <0>         0.0815
     56 H24        57.1143   24.1613   37.1317 H       1  <0>         0.0825
     57 H25        56.4551   23.2766   35.7070 H       1  <0>         0.0825
     58 H26        53.8857   20.0343   41.1793 H       1  <0>         0.0501
     59 H27        54.2517   23.2210   40.1756 H       1  <0>         0.0504
     60 H28        59.2330   19.4790   35.3651 H       1  <0>         0.1449
     61 H29        60.0829   20.9437   35.7284 H       1  <0>         0.1449
     62 H30        55.8490   21.5167   37.3351 H       1  <0>         0.2034
     63 H31        50.4886   27.6453   38.9777 H       1  <0>         0.2110
@<TRIPOS>BOND
     1     1    22    1
     2     2     4   ar
     3     2    15   ar
     4     3     5   ar
     5     3    15   ar
     6     4    16   ar
     7     5    16   ar
     8     6     7    1
     9     6    17    1
    10     7    17    1
    11     8    12    1
    12     8    18    1
    13     9    13    1
    14     9    18    1
    15    10    11    1
    16    10    21    1
    17    11    21    1
    18    12    25    1
    19    13    25    1
    20    14    21    1
    21    14    25    1
    22    15    19    1
    23    16    22    1
    24    17    26    1
    25    18    26    1
    26    19    26   am
    27    19    28    2
    28    20    21    1
    29    20    24   am
    30    20    29    2
    31    22    23    1
    32    22    27    1
    33    23    30    1
    34    23    31    1
    35    23    32    1
    36     1    33    1
    37     1    34    1
    38     1    35    1
    39     2    36    1
    40     3    37    1
    41     4    38    1
    42     5    39    1
    43     6    40    1
    44     6    41    1
    45     7    42    1
    46     7    43    1
    47     8    44    1
    48     8    45    1
    49     9    46    1
    50     9    47    1
    51    10    48    1
    52    10    49    1
    53    11    50    1
    54    11    51    1
    55    12    52    1
    56    12    53    1
    57    13    54    1
    58    13    55    1
    59    14    56    1
    60    14    57    1
    61    17    58    1
    62    18    59    1
    63    24    60    1
    64    24    61    1
    65    25    62    1
    66    27    63    1
@<TRIPOS>SUBSTRUCTURE
     1 <0>         1 TEMP              0 ****  ****    0 ROOT

