
##########                                Name:      UIP_H5555_1YPE
##########                    Molecular_Weight:             448.565
##########                DOCK_Rotatable_Bonds:                   4
##########                       Formal_Charge:              2.0001
##########                     HBond_Acceptors:                   7
##########                        HBond_Donors:                   5
##########                         Heavy_Atoms:                  33
##########                            HA_RMSDs:               0.136
##########                            HA_RMSDh:               0.136
##########                            HA_RMSDm:               0.136
##########                          Grid_Score:         -192.367310
##########                     Grid_vdw_energy:          -58.035885
##########                      Grid_es_energy:         -134.331421
##########           Internal_energy_repulsive:           13.788520

@<TRIPOS>MOLECULE
UIP_H5555_1YPE
 65 70 1 0 0
SMALL
USER_CHARGES


@<TRIPOS>ATOM
      1 C1         20.9291  -12.1680   18.4329 C.3     1  <0>        -0.0636
      2 C2         14.1556   -9.8447   21.4300 C.ar    1  <0>        -0.0524
      3 C3         13.7530  -12.2152   21.4078 C.ar    1  <0>        -0.0524
      4 C4         13.1472   -9.6573   22.3569 C.ar    1  <0>        -0.0465
      5 C5         12.7116  -12.0378   22.3349 C.ar    1  <0>        -0.0465
      6 C6         19.5359  -13.7296   24.2484 C.ar    1  <0>        -0.0545
      7 C7         20.4298  -13.4054   25.2910 C.ar    1  <0>        -0.0287
      8 C8         21.2996  -14.1818   22.6186 C.ar    1  <0>        -0.0244
      9 C9         15.1488  -12.5047   16.6934 C.3     1  <0>        -0.0074
     10 C10        16.5688  -12.0880   17.0295 C.3     1  <0>        -0.0045
     11 C11        14.3750  -12.3857   18.0307 C.3     1  <0>        -0.0308
     12 C12        24.0057  -13.6503   24.9665 C.3     1  <0>         0.1600
     13 C13        20.3157  -12.2141   19.8386 C.3     1  <0>        -0.0366
     14 C14        18.8934  -14.4258   21.8646 C.3     1  <0>         0.0401
     15 C15        14.4903  -11.1215   20.9461 C.ar    1  <0>         0.0010
     16 C16        12.4019  -10.7570   22.8171 C.ar    1  <0>         0.0611
     17 C17        19.9291  -14.1236   22.9281 C.ar    1  <0>        -0.0275
     18 C18        21.7795  -13.4521   24.9350 C.ar    1  <0>         0.1090
     19 C19        22.2071  -13.8451   23.6503 C.ar    1  <0>         0.1093
     20 C20        16.7400  -12.7264   18.4253 C.3     1  <0>        -0.0146
     21 C21        18.8999  -12.8447   19.7815 C.3     1  <0>         0.0349
     22 C22        15.5989  -11.2930   19.9450 C.3     1  <0>         0.0171
     23 C23        17.8046  -11.8879   19.2092 C.3     1  <0>         0.0372
     24 C24        17.0340  -11.4071   20.4787 C.3     1  <0>         0.0923
     25 C25        17.2322  -12.6167   21.4263 C.2     1  <0>         0.2255
     26 C26        11.3489  -10.6180   23.7602 C.cat   1  <0>         0.2605
     27 N1         10.9746   -9.4270   24.2980 N.pl3   1  <0>        -0.3060
     28 N2         10.6377  -11.6740   24.1886 N.pl3   1  <0>        -0.2158
     29 N3         15.4004  -12.5203   19.1034 N.4     1  <0>         0.2436
     30 N4         18.4014  -13.2465   21.0667 N.am    1  <0>        -0.2932
     31 O1         16.6827  -12.7183   22.5539 O.2     1  <0>        -0.2750
     32 O2         22.8710  -13.0446   25.6780 O.3     1  <0>        -0.3151
     33 O3         23.5978  -14.0228   23.6241 O.3     1  <0>        -0.3150
     34 H1         21.9321  -11.7195   18.4845 H       1  <0>         0.0230
     35 H2         21.0047  -13.1897   18.0323 H       1  <0>         0.0230
     36 H3         20.2901  -11.5619   17.7739 H       1  <0>         0.0230
     37 H4         14.7016   -8.9863   21.0676 H       1  <0>         0.0622
     38 H5         13.9857  -13.2067   21.0486 H       1  <0>         0.0622
     39 H6         12.9319   -8.6659   22.7276 H       1  <0>         0.0626
     40 H7         12.1467  -12.8920   22.6781 H       1  <0>         0.0626
     41 H8         18.4784  -13.6768   24.4611 H       1  <0>         0.0622
     42 H9         20.0972  -13.1424   26.2843 H       1  <0>         0.0644
     43 H10        21.6442  -14.4707   21.6366 H       1  <0>         0.0647
     44 H11        14.7150  -11.8471   15.9256 H       1  <0>         0.0319
     45 H12        15.1194  -13.5352   16.3099 H       1  <0>         0.0319
     46 H13        17.3008  -12.4684   16.3019 H       1  <0>         0.0322
     47 H14        16.6913  -10.9951   17.0505 H       1  <0>         0.0322
     48 H15        13.8639  -11.4141   18.0999 H       1  <0>         0.0815
     49 H16        13.6172  -13.1786   18.1143 H       1  <0>         0.0815
     50 H17        24.8308  -12.9250   24.9098 H       1  <0>         0.0880
     51 H18        24.3407  -14.5467   25.5089 H       1  <0>         0.0880
     52 H19        20.9570  -12.8208   20.4949 H       1  <0>         0.0281
     53 H20        20.2416  -11.1911   20.2361 H       1  <0>         0.0281
     54 H21        19.3478  -15.1342   21.1563 H       1  <0>         0.0514
     55 H22        18.0217  -14.8653   22.3714 H       1  <0>         0.0514
     56 H23        17.0462  -13.7820   18.3822 H       1  <0>         0.0855
     57 H24        19.0579  -13.7090   19.1197 H       1  <0>         0.0505
     58 H25        15.5195  -10.3448   19.3929 H       1  <0>         0.0912
     59 H26        18.2460  -11.1042   18.5758 H       1  <0>         0.0383
     60 H27        17.3220  -10.4735   20.9841 H       1  <0>         0.0459
     61 H28        10.2232   -9.3900   24.9568 H       1  <0>         0.1477
     62 H29        11.4507   -8.5879   24.0349 H       1  <0>         0.1477
     63 H30         9.9004  -11.5445   24.8517 H       1  <0>         0.4359
     64 H31        10.8456  -12.5896   23.8444 H       1  <0>         0.4359
     65 H32        15.0835  -13.2659   19.6897 H       1  <0>         0.2043
@<TRIPOS>BOND
     1     1    13    1
     2     2     4   ar
     3     2    15   ar
     4     3     5   ar
     5     3    15   ar
     6     4    16   ar
     7     5    16   ar
     8     6     7   ar
     9     6    17   ar
    10     7    18   ar
    11     8    17   ar
    12     8    19   ar
    13     9    10    1
    14     9    11    1
    15    10    20    1
    16    11    29    1
    17    12    32    1
    18    12    33    1
    19    13    21    1
    20    14    17    1
    21    14    30    1
    22    15    22    1
    23    16    26    1
    24    18    19   ar
    25    18    32    1
    26    19    33    1
    27    20    23    1
    28    20    29    1
    29    21    23    1
    30    21    30    1
    31    22    24    1
    32    22    29    1
    33    23    24    1
    34    24    25    1
    35    25    30   am
    36    25    31    2
    37    26    27    1
    38    26    28    2
    39     1    34    1
    40     1    35    1
    41     1    36    1
    42     2    37    1
    43     3    38    1
    44     4    39    1
    45     5    40    1
    46     6    41    1
    47     7    42    1
    48     8    43    1
    49     9    44    1
    50     9    45    1
    51    10    46    1
    52    10    47    1
    53    11    48    1
    54    11    49    1
    55    12    50    1
    56    12    51    1
    57    13    52    1
    58    13    53    1
    59    14    54    1
    60    14    55    1
    61    20    56    1
    62    21    57    1
    63    22    58    1
    64    23    59    1
    65    24    60    1
    66    27    61    1
    67    27    62    1
    68    28    63    1
    69    28    64    1
    70    29    65    1
@<TRIPOS>SUBSTRUCTURE
     1 <0>         1 TEMP              0 ****  ****    0 ROOT

