Z4361714947
  MJ210100                      

 26 30  0  0  0  0  0  0  0  0999 V2000
    6.4393   -4.3046    0.0000 O   0  0  0  0  0  0  0  0  0  0  0  0
    5.6323   -4.4761    0.0000 C   0  0  0  0  0  0  0  0  0  0  0  0
    5.3774   -5.2607    0.0000 O   0  0  0  0  0  0  0  0  0  0  0  0
    5.0803   -3.8630    0.0000 C   0  0  0  0  0  0  0  0  0  0  0  0
    4.2733   -4.0346    0.0000 C   0  0  0  0  0  0  0  0  0  0  0  0
    3.7213   -3.4215    0.0000 C   0  0  0  0  0  0  0  0  0  0  0  0
    3.9762   -2.6368    0.0000 C   0  0  0  0  0  0  0  0  0  0  0  0
    3.1524   -2.5937    0.0000 C   0  0  0  0  0  0  0  0  0  0  0  0
    3.1955   -1.7698    0.0000 C   0  0  0  0  0  0  0  0  0  0  0  0
    4.0194   -1.8130    0.0000 C   0  0  0  0  0  0  0  0  0  0  0  0
    2.6435   -1.1567    0.0000 N   0  0  0  0  0  0  0  0  0  0  0  0
    2.8984   -0.3721    0.0000 C   0  0  0  0  0  0  0  0  0  0  0  0
    2.3464    0.2409    0.0000 C   0  0  0  0  0  0  0  0  0  0  0  0
    2.6013    1.0255    0.0000 C   0  0  0  0  0  0  0  0  0  0  0  0
    1.9339    1.5105    0.0000 S   0  0  0  0  0  0  0  0  0  0  0  0
    1.2664    1.0255    0.0000 C   0  0  0  0  0  0  0  0  0  0  0  0
    1.5214    0.2409    0.0000 C   0  0  0  0  0  0  0  0  0  0  0  0
    0.9694   -0.3721    0.0000 C   0  0  0  0  0  0  0  0  0  0  0  0
    0.1624   -0.2005    0.0000 C   0  0  0  0  0  0  0  0  0  0  0  0
   -0.0925    0.5840    0.0000 C   0  0  0  0  0  0  0  0  0  0  0  0
    0.4595    1.1971    0.0000 C   0  0  0  0  0  0  0  0  0  0  0  0
    3.4083    1.1971    0.0000 N   0  0  0  0  0  0  0  0  0  0  0  0
    3.9603    0.5840    0.0000 C   0  0  0  0  0  0  0  0  0  0  0  0
    3.7054   -0.2005    0.0000 N   0  0  0  0  0  0  0  0  0  0  0  0
    4.7832   -2.4653    0.0000 C   0  0  0  0  0  0  0  0  0  0  0  0
    5.3352   -3.0784    0.0000 C   0  0  0  0  0  0  0  0  0  0  0  0
  1  2  1  0  0  0  0
  2  3  2  0  0  0  0
  2  4  1  0  0  0  0
  4  5  1  0  0  0  0
  5  6  1  0  0  0  0
  6  7  1  0  0  0  0
  7  8  1  0  0  0  0
  8  9  1  0  0  0  0
  9 10  1  0  0  0  0
  7 10  1  0  0  0  0
  9 11  1  0  0  0  0
 11 12  1  0  0  0  0
 12 13  2  0  0  0  0
 13 14  1  0  0  0  0
 14 15  1  0  0  0  0
 15 16  1  0  0  0  0
 16 17  2  0  0  0  0
 13 17  1  0  0  0  0
 17 18  1  0  0  0  0
 18 19  1  0  0  0  0
 19 20  1  0  0  0  0
 20 21  1  0  0  0  0
 16 21  1  0  0  0  0
 14 22  2  0  0  0  0
 22 23  1  0  0  0  0
 23 24  2  0  0  0  0
 12 24  1  0  0  0  0
  7 25  1  0  0  0  0
 25 26  1  0  0  0  0
  4 26  1  0  0  0  0
M  END
