Z4647716479
  MJ210100                      

 26 30  0  0  0  0  0  0  0  0999 V2000
    5.3774    6.0857    0.0000 O   0  0  0  0  0  0  0  0  0  0  0  0
    5.6323    5.3011    0.0000 C   0  0  0  0  0  0  0  0  0  0  0  0
    6.4393    5.1296    0.0000 O   0  0  0  0  0  0  0  0  0  0  0  0
    5.0803    4.6880    0.0000 C   0  0  0  0  0  0  0  0  0  0  0  0
    5.3352    3.9034    0.0000 C   0  0  0  0  0  0  0  0  0  0  0  0
    4.7832    3.2903    0.0000 C   0  0  0  0  0  0  0  0  0  0  0  0
    3.9762    3.4618    0.0000 C   0  0  0  0  0  0  0  0  0  0  0  0
    4.0194    2.6380    0.0000 C   0  0  0  0  0  0  0  0  0  0  0  0
    3.1955    2.5948    0.0000 C   0  0  0  0  0  0  0  0  0  0  0  0
    3.1524    3.4187    0.0000 C   0  0  0  0  0  0  0  0  0  0  0  0
    2.6435    1.9817    0.0000 N   0  0  0  0  0  0  0  0  0  0  0  0
    2.8984    1.1971    0.0000 C   0  0  0  0  0  0  0  0  0  0  0  0
    3.7054    1.0255    0.0000 N   0  0  0  0  0  0  0  0  0  0  0  0
    3.9603    0.2409    0.0000 C   0  0  0  0  0  0  0  0  0  0  0  0
    3.4083   -0.3721    0.0000 N   0  0  0  0  0  0  0  0  0  0  0  0
    2.6013   -0.2005    0.0000 C   0  0  0  0  0  0  0  0  0  0  0  0
    2.3464    0.5840    0.0000 C   0  0  0  0  0  0  0  0  0  0  0  0
    1.5214    0.5840    0.0000 C   0  0  0  0  0  0  0  0  0  0  0  0
    1.2664   -0.2005    0.0000 C   0  0  0  0  0  0  0  0  0  0  0  0
    1.9339   -0.6855    0.0000 S   0  0  0  0  0  0  0  0  0  0  0  0
    0.4595   -0.3721    0.0000 C   0  0  0  0  0  0  0  0  0  0  0  0
   -0.0925    0.2409    0.0000 C   0  0  0  0  0  0  0  0  0  0  0  0
    0.1624    1.0255    0.0000 C   0  0  0  0  0  0  0  0  0  0  0  0
    0.9694    1.1971    0.0000 C   0  0  0  0  0  0  0  0  0  0  0  0
    3.7213    4.2465    0.0000 C   0  0  0  0  0  0  0  0  0  0  0  0
    4.2733    4.8596    0.0000 C   0  0  0  0  0  0  0  0  0  0  0  0
  1  2  1  0  0  0  0
  2  3  2  0  0  0  0
  2  4  1  0  0  0  0
  4  5  1  0  0  0  0
  5  6  1  0  0  0  0
  6  7  1  0  0  0  0
  7  8  1  0  0  0  0
  8  9  1  0  0  0  0
  9 10  1  0  0  0  0
  7 10  1  0  0  0  0
  9 11  1  0  0  0  0
 11 12  1  0  0  0  0
 12 13  2  0  0  0  0
 13 14  1  0  0  0  0
 14 15  2  0  0  0  0
 15 16  1  0  0  0  0
 16 17  2  0  0  0  0
 12 17  1  0  0  0  0
 17 18  1  0  0  0  0
 18 19  2  0  0  0  0
 19 20  1  0  0  0  0
 16 20  1  0  0  0  0
 19 21  1  0  0  0  0
 21 22  2  0  0  0  0
 22 23  1  0  0  0  0
 23 24  2  0  0  0  0
 18 24  1  0  0  0  0
  7 25  1  0  0  0  0
 25 26  1  0  0  0  0
  4 26  1  0  0  0  0
M  END
