
##########                                Name:        CEL_682_3LN1
##########                    Molecular_Weight:             381.378
##########                DOCK_Rotatable_Bonds:                   5
##########                       Formal_Charge:          0.00030008
##########                     HBond_Acceptors:                   9
##########                        HBond_Donors:                   2
##########                         Heavy_Atoms:                  26
##########                            HA_RMSDs:               0.477
##########                            HA_RMSDh:               0.477
##########                            HA_RMSDm:               0.477
##########                          Grid_Score:          -60.090458
##########                     Grid_vdw_energy:          -60.748711
##########                      Grid_es_energy:            0.658254
##########           Internal_energy_repulsive:            8.925368

@<TRIPOS>MOLECULE
CEL_682_3LN1
 40 42 1 0 0
SMALL
USER_CHARGES


@<TRIPOS>ATOM
      1 C1         32.2494  -24.8572  -11.2883 C.3     1  <0>        -0.0397
      2 C2         33.1139  -24.6913  -13.5816 C.ar    1  <0>        -0.0582
      3 C3         31.4639  -23.1049  -12.8957 C.ar    1  <0>        -0.0582
      4 C4         33.1564  -24.1100  -14.8202 C.ar    1  <0>        -0.0525
      5 C5         31.5014  -22.5261  -14.1370 C.ar    1  <0>        -0.0525
      6 C6         29.4244  -23.0357  -16.6193 C.ar    1  <0>        -0.0366
      7 C7         29.4978  -20.8955  -17.7360 C.ar    1  <0>        -0.0366
      8 C8         28.0552  -22.9553  -16.5644 C.ar    1  <0>        -0.0333
      9 C9         28.1325  -20.8110  -17.6783 C.ar    1  <0>        -0.0333
     10 C10        33.6376  -22.2045  -17.0794 C.2     1  <0>        -0.0063
     11 C11        32.2678  -24.1912  -12.6191 C.ar    1  <0>        -0.0504
     12 C12        32.3421  -23.0400  -15.1053 C.ar    1  <0>        -0.0017
     13 C13        30.1137  -21.9982  -17.1989 C.ar    1  <0>         0.0573
     14 C14        27.4456  -21.8436  -17.0886 C.ar    1  <0>         0.1080
     15 C15        32.4570  -22.4537  -16.4283 C.2     1  <0>         0.0663
     16 C16        33.2966  -21.5949  -18.3010 C.2     1  <0>         0.1639
     17 C17        34.1914  -21.1178  -19.3487 C.3     1  <0>         0.4358
     18 N1         25.1438  -21.8806  -18.6501 N.pl3   1  <0>        -0.2609
     19 N2         31.9829  -21.4474  -18.4190 N.2     1  <0>        -0.1705
     20 N3         31.4944  -21.9814  -17.2884 N.pl3   1  <0>        -0.1920
     21 O1         25.2328  -22.7214  -16.1287 O.2     1  <0>        -0.1505
     22 O2         25.4826  -20.2996  -16.6375 O.2     1  <0>        -0.1505
     23 F1         35.3437  -21.8106  -19.3802 F       1  <0>        -0.1644
     24 F2         34.5164  -19.8349  -19.0859 F       1  <0>        -0.1644
     25 F3         33.7024  -21.1565  -20.6134 F       1  <0>        -0.1644
     26 S1         25.6905  -21.6744  -17.0243 S.o2    1  <0>         0.0659
     27 H1         32.9941  -24.3847  -10.6309 H       1  <0>         0.0278
     28 H2         31.2493  -24.7559  -10.8416 H       1  <0>         0.0278
     29 H3         32.4911  -25.9235  -11.4088 H       1  <0>         0.0278
     30 H4         33.7433  -25.5406  -13.3604 H       1  <0>         0.0620
     31 H5         30.8060  -22.7112  -12.1351 H       1  <0>         0.0620
     32 H6         33.8296  -24.4922  -15.5733 H       1  <0>         0.0624
     33 H7         30.8772  -21.6728  -14.3573 H       1  <0>         0.0624
     34 H8         29.9460  -23.8919  -16.2175 H       1  <0>         0.0637
     35 H9         30.0789  -20.1097  -18.1954 H       1  <0>         0.0637
     36 H10        27.4719  -23.7479  -16.1194 H       1  <0>         0.0638
     37 H11        27.6109  -19.9570  -18.0846 H       1  <0>         0.0638
     38 H12        34.6323  -22.4311  -16.7249 H       1  <0>         0.0658
     39 H13        24.1568  -21.7252  -18.6926 H       1  <0>         0.1635
     40 H14        25.6101  -21.2251  -19.2441 H       1  <0>         0.1635
@<TRIPOS>BOND
     1     1    11    1
     2     2     4   ar
     3     2    11   ar
     4     3     5   ar
     5     3    11   ar
     6     4    12   ar
     7     5    12   ar
     8     6     8   ar
     9     6    13   ar
    10     7     9   ar
    11     7    13   ar
    12     8    14   ar
    13     9    14   ar
    14    10    15    2
    15    10    16    1
    16    12    15    1
    17    13    20    1
    18    14    26    1
    19    15    20    1
    20    16    17    1
    21    16    19    2
    22    17    23    1
    23    17    24    1
    24    17    25    1
    25    18    26    1
    26    19    20    1
    27    21    26    2
    28    22    26    2
    29     1    27    1
    30     1    28    1
    31     1    29    1
    32     2    30    1
    33     3    31    1
    34     4    32    1
    35     5    33    1
    36     6    34    1
    37     7    35    1
    38     8    36    1
    39     9    37    1
    40    10    38    1
    41    18    39    1
    42    18    40    1
@<TRIPOS>SUBSTRUCTURE
     1 <0>         1 TEMP              0 ****  ****    0 ROOT

