
##########                                Name:        CEL_682_3LN1
##########                    Molecular_Weight:             381.378
##########                DOCK_Rotatable_Bonds:                   5
##########                       Formal_Charge:          0.00030008
##########                     HBond_Acceptors:                   9
##########                        HBond_Donors:                   2
##########                         Heavy_Atoms:                  26
##########                            HA_RMSDs:               0.476
##########                            HA_RMSDh:               0.476
##########                            HA_RMSDm:               0.476
##########                          Grid_Score:          -60.804497
##########                     Grid_vdw_energy:          -61.249989
##########                      Grid_es_energy:            0.445494
##########           Internal_energy_repulsive:           10.489548

@<TRIPOS>MOLECULE
CEL_682_3LN1
 40 42 1 0 0
SMALL
USER_CHARGES


@<TRIPOS>ATOM
      1 C1         32.3506  -25.1127  -11.6651 C.3     1  <0>        -0.0397
      2 C2         33.2610  -24.7087  -13.9105 C.ar    1  <0>        -0.0582
      3 C3         31.4762  -23.3066  -13.1634 C.ar    1  <0>        -0.0582
      4 C4         33.2919  -24.0334  -15.1008 C.ar    1  <0>        -0.0525
      5 C5         31.5024  -22.6340  -14.3567 C.ar    1  <0>        -0.0525
      6 C6         29.4680  -22.8272  -16.7756 C.ar    1  <0>        -0.0366
      7 C7         29.5567  -20.6195  -17.7510 C.ar    1  <0>        -0.0366
      8 C8         28.1010  -22.7315  -16.6940 C.ar    1  <0>        -0.0333
      9 C9         28.1938  -20.5200  -17.6663 C.ar    1  <0>        -0.0333
     10 C10        33.6854  -22.0318  -17.2512 C.2     1  <0>        -0.0063
     11 C11        32.3535  -24.3478  -12.9418 C.ar    1  <0>        -0.0504
     12 C12        32.4057  -23.0086  -15.3325 C.ar    1  <0>        -0.0017
     13 C13        30.1640  -21.7636  -17.2968 C.ar    1  <0>         0.0573
     14 C14        27.5004  -21.5795  -17.1348 C.ar    1  <0>         0.1080
     15 C15        32.5106  -22.3164  -16.6041 C.2     1  <0>         0.0663
     16 C16        33.3365  -21.3180  -18.4127 C.2     1  <0>         0.1639
     17 C17        34.2234  -20.7692  -19.4316 C.3     1  <0>         0.4358
     18 N1         25.1416  -21.8353  -18.5868 N.pl3   1  <0>        -0.2609
     19 N2         32.0237  -21.1416  -18.4970 N.2     1  <0>        -0.1705
     20 N3         31.5433  -21.7600  -17.4068 N.pl3   1  <0>        -0.1920
     21 O1         25.3242  -22.2875  -15.9725 O.2     1  <0>        -0.1505
     22 O2         25.5575  -19.9717  -16.8493 O.2     1  <0>        -0.1505
     23 F1         35.5058  -21.1158  -19.2219 F       1  <0>        -0.1644
     24 F2         34.1697  -19.4224  -19.3687 F       1  <0>        -0.1644
     25 F3         33.9500  -21.1219  -20.7125 F       1  <0>        -0.1644
     26 S1         25.7491  -21.3905  -17.0320 S.o2    1  <0>         0.0659
     27 H1         33.0389  -24.6373  -10.9507 H       1  <0>         0.0278
     28 H2         31.3341  -25.1205  -11.2448 H       1  <0>         0.0278
     29 H3         32.6766  -26.1457  -11.8560 H       1  <0>         0.0278
     30 H4         33.9476  -25.5231  -13.7323 H       1  <0>         0.0620
     31 H5         30.7699  -23.0222  -12.3976 H       1  <0>         0.0620
     32 H6         34.0124  -24.3059  -15.8578 H       1  <0>         0.0624
     33 H7         30.8205  -21.8153  -14.5336 H       1  <0>         0.0624
     34 H8         29.9827  -23.7150  -16.4389 H       1  <0>         0.0637
     35 H9         30.1426  -19.8134  -18.1670 H       1  <0>         0.0637
     36 H10        27.5127  -23.5435  -16.2927 H       1  <0>         0.0638
     37 H11        27.6791  -19.6341  -18.0077 H       1  <0>         0.0638
     38 H12        34.6814  -22.3019  -16.9327 H       1  <0>         0.0658
     39 H13        24.1562  -21.6681  -18.6204 H       1  <0>         0.1635
     40 H14        25.5963  -21.2898  -19.2907 H       1  <0>         0.1635
@<TRIPOS>BOND
     1     1    11    1
     2     2     4   ar
     3     2    11   ar
     4     3     5   ar
     5     3    11   ar
     6     4    12   ar
     7     5    12   ar
     8     6     8   ar
     9     6    13   ar
    10     7     9   ar
    11     7    13   ar
    12     8    14   ar
    13     9    14   ar
    14    10    15    2
    15    10    16    1
    16    12    15    1
    17    13    20    1
    18    14    26    1
    19    15    20    1
    20    16    17    1
    21    16    19    2
    22    17    23    1
    23    17    24    1
    24    17    25    1
    25    18    26    1
    26    19    20    1
    27    21    26    2
    28    22    26    2
    29     1    27    1
    30     1    28    1
    31     1    29    1
    32     2    30    1
    33     3    31    1
    34     4    32    1
    35     5    33    1
    36     6    34    1
    37     7    35    1
    38     8    36    1
    39     9    37    1
    40    10    38    1
    41    18    39    1
    42    18    40    1
@<TRIPOS>SUBSTRUCTURE
     1 <0>         1 TEMP              0 ****  ****    0 ROOT

