
##########                                Name:        CEL_682_3LN1
##########                    Molecular_Weight:             381.378
##########                DOCK_Rotatable_Bonds:                   5
##########                       Formal_Charge:          0.00030008
##########                     HBond_Acceptors:                   9
##########                        HBond_Donors:                   2
##########                         Heavy_Atoms:                  26
##########                            HA_RMSDs:               0.587
##########                            HA_RMSDh:               0.587
##########                            HA_RMSDm:               0.587
##########                          Grid_Score:          -56.881207
##########                     Grid_vdw_energy:          -57.520313
##########                      Grid_es_energy:            0.639106
##########           Internal_energy_repulsive:           11.206808

@<TRIPOS>MOLECULE
CEL_682_3LN1
 40 42 1 0 0
SMALL
USER_CHARGES


@<TRIPOS>ATOM
      1 C1         32.5240  -25.4857  -11.9392 C.3     1  <0>        -0.0397
      2 C2         33.2994  -24.9913  -14.2170 C.ar    1  <0>        -0.0582
      3 C3         31.6719  -23.5313  -13.2528 C.ar    1  <0>        -0.0582
      4 C4         33.2924  -24.2411  -15.3620 C.ar    1  <0>        -0.0525
      5 C5         31.6600  -22.7833  -14.4007 C.ar    1  <0>        -0.0525
      6 C6         29.5147  -22.9660  -16.7601 C.ar    1  <0>        -0.0366
      7 C7         29.4828  -20.8053  -17.8387 C.ar    1  <0>        -0.0366
      8 C8         28.1450  -22.9382  -16.6735 C.ar    1  <0>        -0.0333
      9 C9         28.1170  -20.7733  -17.7493 C.ar    1  <0>        -0.0333
     10 C10        33.6815  -22.0083  -17.3313 C.2     1  <0>        -0.0063
     11 C11        32.4893  -24.6389  -13.1626 C.ar    1  <0>        -0.0504
     12 C12        32.4644  -23.1486  -15.4626 C.ar    1  <0>        -0.0017
     13 C13        30.1514  -21.8932  -17.3356 C.ar    1  <0>         0.0573
     14 C14        27.4826  -21.8413  -17.1637 C.ar    1  <0>         0.1080
     15 C15        32.5266  -22.3809  -16.6931 C.2     1  <0>         0.0663
     16 C16        33.2904  -21.2454  -18.4472 C.2     1  <0>         0.1639
     17 C17        34.1425  -20.6007  -19.4393 C.3     1  <0>         0.4358
     18 N1         25.1453  -22.0115  -18.6623 N.pl3   1  <0>        -0.2609
     19 N2         31.9704  -21.1224  -18.5116 N.2     1  <0>        -0.1705
     20 N3         31.5282  -21.8227  -17.4553 N.pl3   1  <0>        -0.1920
     21 O1         25.3318  -22.7788  -16.1229 O.2     1  <0>        -0.1505
     22 O2         25.4714  -20.3639  -16.7017 O.2     1  <0>        -0.1505
     23 F1         35.4486  -20.7798  -19.1732 F       1  <0>        -0.1644
     24 F2         33.9171  -19.2710  -19.4013 F       1  <0>        -0.1644
     25 F3         33.9690  -21.0003  -20.7239 F       1  <0>        -0.1644
     26 S1         25.7243  -21.7395  -17.0576 S.o2    1  <0>         0.0659
     27 H1         33.2919  -25.1042  -11.2501 H       1  <0>         0.0278
     28 H2         31.5416  -25.4568  -11.4454 H       1  <0>         0.0278
     29 H3         32.7642  -26.5224  -12.2178 H       1  <0>         0.0278
     30 H4         33.9394  -25.8579  -14.1416 H       1  <0>         0.0620
     31 H5         31.0425  -23.2543  -12.4201 H       1  <0>         0.0620
     32 H6         33.9375  -24.5077  -16.1862 H       1  <0>         0.0624
     33 H7         31.0250  -21.9128  -14.4748 H       1  <0>         0.0624
     34 H8         30.0769  -23.8087  -16.3857 H       1  <0>         0.0637
     35 H9         30.0236  -19.9902  -18.2963 H       1  <0>         0.0637
     36 H10        27.6021  -23.7599  -16.2303 H       1  <0>         0.0638
     37 H11        27.5547  -19.9326  -18.1283 H       1  <0>         0.0638
     38 H12        34.6914  -22.2521  -17.0361 H       1  <0>         0.0658
     39 H13        24.1656  -21.8152  -18.7015 H       1  <0>         0.1635
     40 H14        25.6311  -21.4115  -19.2979 H       1  <0>         0.1635
@<TRIPOS>BOND
     1     1    11    1
     2     2     4   ar
     3     2    11   ar
     4     3     5   ar
     5     3    11   ar
     6     4    12   ar
     7     5    12   ar
     8     6     8   ar
     9     6    13   ar
    10     7     9   ar
    11     7    13   ar
    12     8    14   ar
    13     9    14   ar
    14    10    15    2
    15    10    16    1
    16    12    15    1
    17    13    20    1
    18    14    26    1
    19    15    20    1
    20    16    17    1
    21    16    19    2
    22    17    23    1
    23    17    24    1
    24    17    25    1
    25    18    26    1
    26    19    20    1
    27    21    26    2
    28    22    26    2
    29     1    27    1
    30     1    28    1
    31     1    29    1
    32     2    30    1
    33     3    31    1
    34     4    32    1
    35     5    33    1
    36     6    34    1
    37     7    35    1
    38     8    36    1
    39     9    37    1
    40    10    38    1
    41    18    39    1
    42    18    40    1
@<TRIPOS>SUBSTRUCTURE
     1 <0>         1 TEMP              0 ****  ****    0 ROOT

