
##########                                Name:        CEL_682_3LN1
##########                    Molecular_Weight:             381.378
##########                DOCK_Rotatable_Bonds:                   5
##########                       Formal_Charge:          0.00030008
##########                     HBond_Acceptors:                   9
##########                        HBond_Donors:                   2
##########                         Heavy_Atoms:                  26
##########                            HA_RMSDs:               0.408
##########                            HA_RMSDh:               0.408
##########                            HA_RMSDm:               0.408
##########                          Grid_Score:          -60.332924
##########                     Grid_vdw_energy:          -60.397823
##########                      Grid_es_energy:            0.064901
##########           Internal_energy_repulsive:            7.765782

@<TRIPOS>MOLECULE
CEL_682_3LN1
 40 42 1 0 0
SMALL
USER_CHARGES


@<TRIPOS>ATOM
      1 C1         32.1602  -24.8996  -11.4506 C.3     1  <0>        -0.0397
      2 C2         32.9179  -24.7503  -13.7824 C.ar    1  <0>        -0.0582
      3 C3         31.5715  -22.9686  -12.9325 C.ar    1  <0>        -0.0582
      4 C4         32.9844  -24.1199  -14.9957 C.ar    1  <0>        -0.0525
      5 C5         31.6326  -22.3398  -14.1483 C.ar    1  <0>        -0.0525
      6 C6         29.4425  -22.9229  -16.7996 C.ar    1  <0>        -0.0366
      7 C7         29.5175  -20.7074  -17.7580 C.ar    1  <0>        -0.0366
      8 C8         28.0718  -22.8571  -16.7653 C.ar    1  <0>        -0.0333
      9 C9         28.1507  -20.6376  -17.7205 C.ar    1  <0>        -0.0333
     10 C10        33.6561  -22.0151  -17.1070 C.2     1  <0>        -0.0063
     11 C11        32.2112  -24.1771  -12.7508 C.ar    1  <0>        -0.0504
     12 C12        32.3315  -22.9254  -15.1860 C.ar    1  <0>        -0.0017
     13 C13        30.1331  -21.8412  -17.2898 C.ar    1  <0>         0.0573
     14 C14        27.4622  -21.7152  -17.2199 C.ar    1  <0>         0.1080
     15 C15        32.4658  -22.2967  -16.4875 C.2     1  <0>         0.0663
     16 C16        33.3324  -21.3710  -18.3155 C.2     1  <0>         0.1639
     17 C17        34.2422  -20.8522  -19.3300 C.3     1  <0>         0.4358
     18 N1         25.1587  -22.0463  -18.7438 N.pl3   1  <0>        -0.2609
     19 N2         32.0197  -21.2333  -18.4549 N.2     1  <0>        -0.1705
     20 N3         31.5151  -21.8075  -17.3514 N.pl3   1  <0>        -0.1920
     21 O1         25.2650  -22.4546  -16.1181 O.2     1  <0>        -0.1505
     22 O2         25.4759  -20.1476  -17.0236 O.2     1  <0>        -0.1505
     23 F1         35.5307  -21.0190  -18.9827 F       1  <0>        -0.1644
     24 F2         34.0410  -19.5233  -19.4493 F       1  <0>        -0.1644
     25 F3         34.1212  -21.3889  -20.5698 F       1  <0>        -0.1644
     26 S1         25.7047  -21.5643  -17.1773 S.o2    1  <0>         0.0659
     27 H1         33.0025  -24.5799  -10.8195 H       1  <0>         0.0278
     28 H2         31.2128  -24.6704  -10.9409 H       1  <0>         0.0278
     29 H3         32.2274  -25.9827  -11.6303 H       1  <0>         0.0278
     30 H4         33.4192  -25.6955  -13.6355 H       1  <0>         0.0620
     31 H5         31.0234  -22.5189  -12.1179 H       1  <0>         0.0620
     32 H6         33.5499  -24.5610  -15.8032 H       1  <0>         0.0624
     33 H7         31.1370  -21.3914  -14.2945 H       1  <0>         0.0624
     34 H8         29.9642  -23.8018  -16.4504 H       1  <0>         0.0637
     35 H9         30.1000  -19.8861  -18.1485 H       1  <0>         0.0637
     36 H10        27.4875  -23.6841  -16.3897 H       1  <0>         0.0638
     37 H11        27.6291  -19.7605  -18.0743 H       1  <0>         0.0638
     38 H12        34.6461  -22.2426  -16.7401 H       1  <0>         0.0658
     39 H13        24.1660  -21.9391  -18.7989 H       1  <0>         0.1635
     40 H14        25.5947  -21.4749  -19.4390 H       1  <0>         0.1635
@<TRIPOS>BOND
     1     1    11    1
     2     2     4   ar
     3     2    11   ar
     4     3     5   ar
     5     3    11   ar
     6     4    12   ar
     7     5    12   ar
     8     6     8   ar
     9     6    13   ar
    10     7     9   ar
    11     7    13   ar
    12     8    14   ar
    13     9    14   ar
    14    10    15    2
    15    10    16    1
    16    12    15    1
    17    13    20    1
    18    14    26    1
    19    15    20    1
    20    16    17    1
    21    16    19    2
    22    17    23    1
    23    17    24    1
    24    17    25    1
    25    18    26    1
    26    19    20    1
    27    21    26    2
    28    22    26    2
    29     1    27    1
    30     1    28    1
    31     1    29    1
    32     2    30    1
    33     3    31    1
    34     4    32    1
    35     5    33    1
    36     6    34    1
    37     7    35    1
    38     8    36    1
    39     9    37    1
    40    10    38    1
    41    18    39    1
    42    18    40    1
@<TRIPOS>SUBSTRUCTURE
     1 <0>         1 TEMP              0 ****  ****    0 ROOT

