
##########                                Name:        CEL_682_3LN1
##########                    Molecular_Weight:             381.378
##########                DOCK_Rotatable_Bonds:                   5
##########                       Formal_Charge:          0.00030008
##########                     HBond_Acceptors:                   9
##########                        HBond_Donors:                   2
##########                         Heavy_Atoms:                  26
##########                            HA_RMSDs:               0.328
##########                            HA_RMSDh:               0.328
##########                            HA_RMSDm:               0.328
##########                          Grid_Score:          -58.399723
##########                     Grid_vdw_energy:          -58.500008
##########                      Grid_es_energy:            0.100284
##########           Internal_energy_repulsive:            9.040839

@<TRIPOS>MOLECULE
CEL_682_3LN1
 40 42 1 0 0
SMALL
USER_CHARGES


@<TRIPOS>ATOM
      1 C1         32.0373  -24.9778  -11.3459 C.3     1  <0>        -0.0397
      2 C2         33.0499  -24.6811  -13.5641 C.ar    1  <0>        -0.0582
      3 C3         31.2366  -23.2444  -12.9662 C.ar    1  <0>        -0.0582
      4 C4         33.1366  -24.0629  -14.7824 C.ar    1  <0>        -0.0525
      5 C5         31.3188  -22.6290  -14.1876 C.ar    1  <0>        -0.0525
      6 C6         29.4038  -23.0192  -16.7944 C.ar    1  <0>        -0.0366
      7 C7         29.5233  -20.7772  -17.6844 C.ar    1  <0>        -0.0366
      8 C8         28.0336  -22.9362  -16.7811 C.ar    1  <0>        -0.0333
      9 C9         28.1570  -20.6905  -17.6677 C.ar    1  <0>        -0.0333
     10 C10        33.6332  -22.1495  -16.9970 C.2     1  <0>        -0.0063
     11 C11        32.1002  -24.2743  -12.6559 C.ar    1  <0>        -0.0504
     12 C12        32.2646  -23.0498  -15.1024 C.ar    1  <0>        -0.0017
     13 C13        30.1163  -21.9325  -17.2403 C.ar    1  <0>         0.0573
     14 C14        27.4464  -21.7733  -17.2112 C.ar    1  <0>         0.1080
     15 C15        32.4290  -22.4186  -16.3992 C.2     1  <0>         0.0663
     16 C16        33.3383  -21.4977  -18.2088 C.2     1  <0>         0.1639
     17 C17        34.2718  -20.9867  -19.2055 C.3     1  <0>         0.4358
     18 N1         25.1574  -22.1111  -18.7553 N.pl3   1  <0>        -0.2609
     19 N2         32.0300  -21.3438  -18.3704 N.2     1  <0>        -0.1705
     20 N3         31.4994  -21.9153  -17.2778 N.pl3   1  <0>        -0.1920
     21 O1         25.2274  -22.4615  -16.1200 O.2     1  <0>        -0.1505
     22 O2         25.4772  -20.1781  -17.0742 O.2     1  <0>        -0.1505
     23 F1         35.5520  -21.1732  -18.8381 F       1  <0>        -0.1644
     24 F2         34.0910  -19.6546  -19.3214 F       1  <0>        -0.1644
     25 F3         34.1637  -21.5157  -20.4499 F       1  <0>        -0.1644
     26 S1         25.6905  -21.6006  -17.1934 S.o2    1  <0>         0.0659
     27 H1         32.6936  -24.4695  -10.6241 H       1  <0>         0.0278
     28 H2         31.0028  -24.9653  -10.9725 H       1  <0>         0.0278
     29 H3         32.3690  -26.0189  -11.4727 H       1  <0>         0.0278
     30 H4         33.7256  -25.4864  -13.3165 H       1  <0>         0.0620
     31 H5         30.4969  -22.9237  -12.2476 H       1  <0>         0.0620
     32 H6         33.8902  -24.3712  -15.4920 H       1  <0>         0.0624
     33 H7         30.6478  -21.8194  -14.4338 H       1  <0>         0.0624
     34 H8         29.9082  -23.9149  -16.4632 H       1  <0>         0.0637
     35 H9         30.1227  -19.9524  -18.0403 H       1  <0>         0.0637
     36 H10        27.4325  -23.7663  -16.4402 H       1  <0>         0.0638
     37 H11        27.6527  -19.7964  -18.0036 H       1  <0>         0.0638
     38 H12        34.6139  -22.3900  -16.6138 H       1  <0>         0.0658
     39 H13        24.1647  -22.0080  -18.8194 H       1  <0>         0.1635
     40 H14        25.5966  -21.5503  -19.4571 H       1  <0>         0.1635
@<TRIPOS>BOND
     1     1    11    1
     2     2     4   ar
     3     2    11   ar
     4     3     5   ar
     5     3    11   ar
     6     4    12   ar
     7     5    12   ar
     8     6     8   ar
     9     6    13   ar
    10     7     9   ar
    11     7    13   ar
    12     8    14   ar
    13     9    14   ar
    14    10    15    2
    15    10    16    1
    16    12    15    1
    17    13    20    1
    18    14    26    1
    19    15    20    1
    20    16    17    1
    21    16    19    2
    22    17    23    1
    23    17    24    1
    24    17    25    1
    25    18    26    1
    26    19    20    1
    27    21    26    2
    28    22    26    2
    29     1    27    1
    30     1    28    1
    31     1    29    1
    32     2    30    1
    33     3    31    1
    34     4    32    1
    35     5    33    1
    36     6    34    1
    37     7    35    1
    38     8    36    1
    39     9    37    1
    40    10    38    1
    41    18    39    1
    42    18    40    1
@<TRIPOS>SUBSTRUCTURE
     1 <0>         1 TEMP              0 ****  ****    0 ROOT

