
##########                                Name:        CEL_682_3LN1
##########                    Molecular_Weight:             381.378
##########                DOCK_Rotatable_Bonds:                   5
##########                       Formal_Charge:          0.00030008
##########                     HBond_Acceptors:                   9
##########                        HBond_Donors:                   2
##########                         Heavy_Atoms:                  26
##########                            HA_RMSDs:               0.245
##########                            HA_RMSDh:               0.245
##########                            HA_RMSDm:               0.245
##########                          Grid_Score:          -58.861008
##########                     Grid_vdw_energy:          -58.964962
##########                      Grid_es_energy:            0.103954
##########           Internal_energy_repulsive:           12.096198

@<TRIPOS>MOLECULE
CEL_682_3LN1
 40 42 1 0 0
SMALL
USER_CHARGES


@<TRIPOS>ATOM
      1 C1         32.1488  -25.0676  -11.3120 C.3     1  <0>        -0.0397
      2 C2         33.0721  -24.8390  -13.5767 C.ar    1  <0>        -0.0582
      3 C3         31.4047  -23.2712  -12.8902 C.ar    1  <0>        -0.0582
      4 C4         33.1463  -24.2239  -14.7974 C.ar    1  <0>        -0.0525
      5 C5         31.4740  -22.6586  -14.1137 C.ar    1  <0>        -0.0525
      6 C6         29.4530  -22.9489  -16.4949 C.ar    1  <0>        -0.0366
      7 C7         29.5797  -20.9350  -17.8220 C.ar    1  <0>        -0.0366
      8 C8         28.0848  -22.8410  -16.4696 C.ar    1  <0>        -0.0333
      9 C9         28.2155  -20.8228  -17.7942 C.ar    1  <0>        -0.0333
     10 C10        33.6841  -22.2845  -17.0033 C.2     1  <0>        -0.0063
     11 C11        32.2014  -24.3652  -12.6230 C.ar    1  <0>        -0.0504
     12 C12        32.3394  -23.1460  -15.0739 C.ar    1  <0>        -0.0017
     13 C13        30.1685  -21.9872  -17.1662 C.ar    1  <0>         0.0573
     14 C14        27.5023  -21.7787  -17.1134 C.ar    1  <0>         0.1080
     15 C15        32.4882  -22.5236  -16.3768 C.2     1  <0>         0.0663
     16 C16        33.3763  -21.6306  -18.2107 C.2     1  <0>         0.1639
     17 C17        34.2980  -21.1448  -19.2309 C.3     1  <0>         0.4358
     18 N1         25.1948  -22.1773  -18.6147 N.pl3   1  <0>        -0.2609
     19 N2         32.0685  -21.4469  -18.3427 N.2     1  <0>        -0.1705
     20 N3         31.5504  -22.0020  -17.2358 N.pl3   1  <0>        -0.1920
     21 O1         25.2817  -22.3563  -15.9629 O.2     1  <0>        -0.1505
     22 O2         25.5610  -20.1446  -17.0660 O.2     1  <0>        -0.1505
     23 F1         35.5787  -21.2162  -18.8268 F       1  <0>        -0.1644
     24 F2         34.0357  -19.8417  -19.4625 F       1  <0>        -0.1644
     25 F3         34.2521  -21.7819  -20.4275 F       1  <0>        -0.1644
     26 S1         25.7497  -21.5752  -17.0936 S.o2    1  <0>         0.0659
     27 H1         32.8762  -24.6137  -10.6228 H       1  <0>         0.0278
     28 H2         31.1376  -24.9780  -10.8885 H       1  <0>         0.0278
     29 H3         32.3937  -26.1303  -11.4555 H       1  <0>         0.0278
     30 H4         33.6957  -25.6944  -13.3629 H       1  <0>         0.0620
     31 H5         30.7273  -22.8983  -12.1362 H       1  <0>         0.0620
     32 H6         33.8388  -24.5855  -15.5432 H       1  <0>         0.0624
     33 H7         30.8555  -21.7992  -14.3265 H       1  <0>         0.0624
     34 H8         29.9538  -23.7680  -16.0003 H       1  <0>         0.0637
     35 H9         30.1809  -20.2096  -18.3498 H       1  <0>         0.0637
     36 H10        27.4815  -23.5746  -15.9554 H       1  <0>         0.0638
     37 H11        27.7147  -20.0062  -18.2931 H       1  <0>         0.0638
     38 H12        34.6676  -22.5463  -16.6419 H       1  <0>         0.0658
     39 H13        24.1956  -22.2181  -18.6132 H       1  <0>         0.1635
     40 H14        25.5022  -21.5687  -19.3462 H       1  <0>         0.1635
@<TRIPOS>BOND
     1     1    11    1
     2     2     4   ar
     3     2    11   ar
     4     3     5   ar
     5     3    11   ar
     6     4    12   ar
     7     5    12   ar
     8     6     8   ar
     9     6    13   ar
    10     7     9   ar
    11     7    13   ar
    12     8    14   ar
    13     9    14   ar
    14    10    15    2
    15    10    16    1
    16    12    15    1
    17    13    20    1
    18    14    26    1
    19    15    20    1
    20    16    17    1
    21    16    19    2
    22    17    23    1
    23    17    24    1
    24    17    25    1
    25    18    26    1
    26    19    20    1
    27    21    26    2
    28    22    26    2
    29     1    27    1
    30     1    28    1
    31     1    29    1
    32     2    30    1
    33     3    31    1
    34     4    32    1
    35     5    33    1
    36     6    34    1
    37     7    35    1
    38     8    36    1
    39     9    37    1
    40    10    38    1
    41    18    39    1
    42    18    40    1
@<TRIPOS>SUBSTRUCTURE
     1 <0>         1 TEMP              0 ****  ****    0 ROOT

