
##########                                Name:        CEL_682_3LN1
##########                    Molecular_Weight:             381.378
##########                DOCK_Rotatable_Bonds:                   5
##########                       Formal_Charge:          0.00030008
##########                     HBond_Acceptors:                   9
##########                        HBond_Donors:                   2
##########                         Heavy_Atoms:                  26
##########                            HA_RMSDs:               0.283
##########                            HA_RMSDh:               0.283
##########                            HA_RMSDm:               0.283
##########                          Grid_Score:          -57.981846
##########                     Grid_vdw_energy:          -58.134075
##########                      Grid_es_energy:            0.152230
##########           Internal_energy_repulsive:            8.892231

@<TRIPOS>MOLECULE
CEL_682_3LN1
 40 42 1 0 0
SMALL
USER_CHARGES


@<TRIPOS>ATOM
      1 C1         32.0977  -25.1365  -11.3014 C.3     1  <0>        -0.0397
      2 C2         32.9636  -24.9495  -13.5925 C.ar    1  <0>        -0.0582
      3 C3         31.4295  -23.2784  -12.8417 C.ar    1  <0>        -0.0582
      4 C4         33.0418  -24.3290  -14.8102 C.ar    1  <0>        -0.0525
      5 C5         31.5026  -22.6600  -14.0621 C.ar    1  <0>        -0.0525
      6 C6         29.4206  -23.1144  -16.6231 C.ar    1  <0>        -0.0366
      7 C7         29.5387  -20.9519  -17.6919 C.ar    1  <0>        -0.0366
      8 C8         28.0512  -23.0222  -16.5975 C.ar    1  <0>        -0.0333
      9 C9         28.1732  -20.8557  -17.6632 C.ar    1  <0>        -0.0333
     10 C10        33.6504  -22.3163  -16.9717 C.2     1  <0>        -0.0063
     11 C11        32.1574  -24.4266  -12.6081 C.ar    1  <0>        -0.0504
     12 C12        32.3024  -23.1960  -15.0528 C.ar    1  <0>        -0.0017
     13 C13        30.1322  -22.0715  -17.1646 C.ar    1  <0>         0.0573
     14 C14        27.4637  -21.8940  -17.1116 C.ar    1  <0>         0.1080
     15 C15        32.4529  -22.5725  -16.3550 C.2     1  <0>         0.0663
     16 C16        33.3431  -21.6680  -18.1823 C.2     1  <0>         0.1639
     17 C17        34.2660  -21.1695  -19.1952 C.3     1  <0>         0.4358
     18 N1         25.1654  -22.1982  -18.6486 N.pl3   1  <0>        -0.2609
     19 N2         32.0338  -21.5040  -18.3255 N.2     1  <0>        -0.1705
     20 N3         31.5147  -22.0658  -17.2224 N.pl3   1  <0>        -0.1920
     21 O1         25.2452  -22.5798  -16.0180 O.2     1  <0>        -0.1505
     22 O2         25.5062  -20.2872  -16.9466 O.2     1  <0>        -0.1505
     23 F1         35.5492  -21.3025  -18.8155 F       1  <0>        -0.1644
     24 F2         34.0460  -19.8492  -19.3653 F       1  <0>        -0.1644
     25 F3         34.1801  -21.7511  -20.4176 F       1  <0>        -0.1644
     26 S1         25.7092  -21.7095  -17.0834 S.o2    1  <0>         0.0659
     27 H1         32.8755  -24.7400  -10.6322 H       1  <0>         0.0278
     28 H2         31.1086  -24.9823  -10.8455 H       1  <0>         0.0278
     29 H3         32.2647  -26.2120  -11.4607 H       1  <0>         0.0278
     30 H4         33.5335  -25.8474  -13.4050 H       1  <0>         0.0620
     31 H5         30.8031  -22.8675  -12.0638 H       1  <0>         0.0620
     32 H6         33.6844  -24.7298  -15.5802 H       1  <0>         0.0624
     33 H7         30.9380  -21.7585  -14.2487 H       1  <0>         0.0624
     34 H8         29.9251  -23.9838  -16.2279 H       1  <0>         0.0637
     35 H9         30.1372  -20.1620  -18.1211 H       1  <0>         0.0637
     36 H10        27.4508  -23.8185  -16.1828 H       1  <0>         0.0638
     37 H11        27.6688  -19.9884  -18.0629 H       1  <0>         0.0638
     38 H12        34.6346  -22.5630  -16.6017 H       1  <0>         0.0658
     39 H13        24.1658  -22.1822  -18.6747 H       1  <0>         0.1635
     40 H14        25.5267  -21.5703  -19.3380 H       1  <0>         0.1635
@<TRIPOS>BOND
     1     1    11    1
     2     2     4   ar
     3     2    11   ar
     4     3     5   ar
     5     3    11   ar
     6     4    12   ar
     7     5    12   ar
     8     6     8   ar
     9     6    13   ar
    10     7     9   ar
    11     7    13   ar
    12     8    14   ar
    13     9    14   ar
    14    10    15    2
    15    10    16    1
    16    12    15    1
    17    13    20    1
    18    14    26    1
    19    15    20    1
    20    16    17    1
    21    16    19    2
    22    17    23    1
    23    17    24    1
    24    17    25    1
    25    18    26    1
    26    19    20    1
    27    21    26    2
    28    22    26    2
    29     1    27    1
    30     1    28    1
    31     1    29    1
    32     2    30    1
    33     3    31    1
    34     4    32    1
    35     5    33    1
    36     6    34    1
    37     7    35    1
    38     8    36    1
    39     9    37    1
    40    10    38    1
    41    18    39    1
    42    18    40    1
@<TRIPOS>SUBSTRUCTURE
     1 <0>         1 TEMP              0 ****  ****    0 ROOT

