
##########                                Name:        CEL_682_3LN1
##########                    Molecular_Weight:             381.378
##########                DOCK_Rotatable_Bonds:                   5
##########                       Formal_Charge:          0.00030008
##########                     HBond_Acceptors:                   9
##########                        HBond_Donors:                   2
##########                         Heavy_Atoms:                  26
##########                            HA_RMSDs:               0.459
##########                            HA_RMSDh:               0.459
##########                            HA_RMSDm:               0.459
##########                          Grid_Score:          -59.173180
##########                     Grid_vdw_energy:          -59.573700
##########                      Grid_es_energy:            0.400518
##########           Internal_energy_repulsive:            7.994355

@<TRIPOS>MOLECULE
CEL_682_3LN1
 40 42 1 0 0
SMALL
USER_CHARGES


@<TRIPOS>ATOM
      1 C1         32.3255  -25.1330  -11.5599 C.3     1  <0>        -0.0397
      2 C2         33.0569  -24.8450  -13.8871 C.ar    1  <0>        -0.0582
      3 C3         31.6408  -23.1648  -12.9486 C.ar    1  <0>        -0.0582
      4 C4         33.0858  -24.1580  -15.0708 C.ar    1  <0>        -0.0525
      5 C5         31.6644  -22.4795  -14.1348 C.ar    1  <0>        -0.0525
      6 C6         29.4519  -22.9273  -16.7256 C.ar    1  <0>        -0.0366
      7 C7         29.4820  -20.6802  -17.6102 C.ar    1  <0>        -0.0366
      8 C8         28.0819  -22.8768  -16.6556 C.ar    1  <0>        -0.0333
      9 C9         28.1159  -20.6259  -17.5370 C.ar    1  <0>        -0.0333
     10 C10        33.6476  -21.9711  -17.1092 C.2     1  <0>        -0.0063
     11 C11        32.3343  -24.3509  -12.8261 C.ar    1  <0>        -0.0504
     12 C12        32.3797  -22.9861  -15.2025 C.ar    1  <0>        -0.0017
     13 C13        30.1198  -21.8227  -17.1957 C.ar    1  <0>         0.0573
     14 C14        27.4503  -21.7267  -17.0564 C.ar    1  <0>         0.1080
     15 C15        32.4757  -22.2938  -16.4747 C.2     1  <0>         0.0663
     16 C16        33.2880  -21.2724  -18.2765 C.2     1  <0>         0.1639
     17 C17        34.1674  -20.6961  -19.2868 C.3     1  <0>         0.4358
     18 N1         25.1197  -21.9214  -18.5624 N.pl3   1  <0>        -0.2609
     19 N2         31.9710  -21.1408  -18.3763 N.2     1  <0>        -0.1705
     20 N3         31.4994  -21.7726  -17.2899 N.pl3   1  <0>        -0.1920
     21 O1         25.2798  -22.5919  -15.9940 O.2     1  <0>        -0.1505
     22 O2         25.4582  -20.2036  -16.6652 O.2     1  <0>        -0.1505
     23 F1         35.4643  -20.9254  -19.0145 F       1  <0>        -0.1644
     24 F2         34.0016  -19.3571  -19.2885 F       1  <0>        -0.1644
     25 F3         33.9754  -21.1256  -20.5590 F       1  <0>        -0.1644
     26 S1         25.6931  -21.5955  -16.9657 S.o2    1  <0>         0.0659
     27 H1         33.1582  -24.8054  -10.9201 H       1  <0>         0.0278
     28 H2         31.3732  -24.9691  -11.0345 H       1  <0>         0.0278
     29 H3         32.4386  -26.2029  -11.7892 H       1  <0>         0.0278
     30 H4         33.6002  -25.7730  -13.7865 H       1  <0>         0.0620
     31 H5         31.0802  -22.7769  -12.1109 H       1  <0>         0.0620
     32 H6         33.6634  -24.5368  -15.9011 H       1  <0>         0.0624
     33 H7         31.1266  -21.5482  -14.2346 H       1  <0>         0.0624
     34 H8         29.9904  -23.8119  -16.4191 H       1  <0>         0.0637
     35 H9         30.0468  -19.8403  -17.9869 H       1  <0>         0.0637
     36 H10        27.5150  -23.7219  -16.2939 H       1  <0>         0.0638
     37 H11        27.5774  -19.7429  -17.8481 H       1  <0>         0.0638
     38 H12        34.6484  -22.2064  -16.7785 H       1  <0>         0.0658
     39 H13        24.1706  -21.6174  -18.6448 H       1  <0>         0.1635
     40 H14        25.6852  -21.4315  -19.2259 H       1  <0>         0.1635
@<TRIPOS>BOND
     1     1    11    1
     2     2     4   ar
     3     2    11   ar
     4     3     5   ar
     5     3    11   ar
     6     4    12   ar
     7     5    12   ar
     8     6     8   ar
     9     6    13   ar
    10     7     9   ar
    11     7    13   ar
    12     8    14   ar
    13     9    14   ar
    14    10    15    2
    15    10    16    1
    16    12    15    1
    17    13    20    1
    18    14    26    1
    19    15    20    1
    20    16    17    1
    21    16    19    2
    22    17    23    1
    23    17    24    1
    24    17    25    1
    25    18    26    1
    26    19    20    1
    27    21    26    2
    28    22    26    2
    29     1    27    1
    30     1    28    1
    31     1    29    1
    32     2    30    1
    33     3    31    1
    34     4    32    1
    35     5    33    1
    36     6    34    1
    37     7    35    1
    38     8    36    1
    39     9    37    1
    40    10    38    1
    41    18    39    1
    42    18    40    1
@<TRIPOS>SUBSTRUCTURE
     1 <0>         1 TEMP              0 ****  ****    0 ROOT

