
##########                                Name:        CEL_682_3LN1
##########                    Molecular_Weight:             381.378
##########                DOCK_Rotatable_Bonds:                   5
##########                       Formal_Charge:          0.00030008
##########                     HBond_Acceptors:                   9
##########                        HBond_Donors:                   2
##########                         Heavy_Atoms:                  26
##########                            HA_RMSDs:               0.410
##########                            HA_RMSDh:               0.410
##########                            HA_RMSDm:               0.410
##########                          Grid_Score:          -56.326260
##########                     Grid_vdw_energy:          -57.065750
##########                      Grid_es_energy:            0.739491
##########           Internal_energy_repulsive:            7.251439

@<TRIPOS>MOLECULE
CEL_682_3LN1
 40 42 1 0 0
SMALL
USER_CHARGES


@<TRIPOS>ATOM
      1 C1         32.2109  -25.0210  -11.3443 C.3     1  <0>        -0.0397
      2 C2         33.1140  -24.7712  -13.6149 C.ar    1  <0>        -0.0582
      3 C3         31.4201  -23.2380  -12.9150 C.ar    1  <0>        -0.0582
      4 C4         33.1676  -24.1532  -14.8352 C.ar    1  <0>        -0.0525
      5 C5         31.4689  -22.6226  -14.1382 C.ar    1  <0>        -0.0525
      6 C6         29.4287  -23.1123  -16.8131 C.ar    1  <0>        -0.0366
      7 C7         29.5238  -20.8058  -17.5230 C.ar    1  <0>        -0.0366
      8 C8         28.0594  -23.0336  -16.7556 C.ar    1  <0>        -0.0333
      9 C9         28.1585  -20.7236  -17.4619 C.ar    1  <0>        -0.0333
     10 C10        33.6518  -22.1923  -17.0380 C.2     1  <0>        -0.0063
     11 C11        32.2405  -24.3161  -12.6547 C.ar    1  <0>        -0.0504
     12 C12        32.3374  -23.0914  -15.1047 C.ar    1  <0>        -0.0017
     13 C13        30.1288  -21.9918  -17.1896 C.ar    1  <0>         0.0573
     14 C14        27.4606  -21.8411  -17.0746 C.ar    1  <0>         0.1080
     15 C15        32.4649  -22.4645  -16.4078 C.2     1  <0>         0.0663
     16 C16        33.3223  -21.5465  -18.2440 C.2     1  <0>         0.1639
     17 C17        34.2270  -21.0352  -19.2668 C.3     1  <0>         0.4358
     18 N1         25.1542  -21.7803  -18.6285 N.pl3   1  <0>        -0.2609
     19 N2         32.0094  -21.3989  -18.3718 N.2     1  <0>        -0.1705
     20 N3         31.5103  -21.9686  -17.2635 N.pl3   1  <0>        -0.1920
     21 O1         25.2496  -22.7732  -16.1633 O.2     1  <0>        -0.1505
     22 O2         25.5010  -20.3252  -16.5243 O.2     1  <0>        -0.1505
     23 F1         35.4952  -21.4324  -19.0608 F       1  <0>        -0.1644
     24 F2         34.2273  -19.6872  -19.2061 F       1  <0>        -0.1644
     25 F3         33.9353  -21.3788  -20.5462 F       1  <0>        -0.1644
     26 S1         25.7060  -21.6741  -16.9948 S.o2    1  <0>         0.0659
     27 H1         32.9336  -24.5535  -10.6594 H       1  <0>         0.0278
     28 H2         31.2009  -24.9523  -10.9139 H       1  <0>         0.0278
     29 H3         32.4761  -26.0784  -11.4909 H       1  <0>         0.0278
     30 H4         33.7561  -25.6141  -13.4065 H       1  <0>         0.0620
     31 H5         30.7406  -22.8797  -12.1560 H       1  <0>         0.0620
     32 H6         33.8622  -24.4999  -15.5861 H       1  <0>         0.0624
     33 H7         30.8318  -21.7756  -14.3455 H       1  <0>         0.0624
     34 H8         29.9419  -24.0306  -16.5688 H       1  <0>         0.0637
     35 H9         30.1133  -19.9538  -17.8278 H       1  <0>         0.0637
     36 H10        27.4679  -23.8896  -16.4662 H       1  <0>         0.0638
     37 H11        27.6453  -19.8065  -17.7110 H       1  <0>         0.0638
     38 H12        34.6432  -22.4271  -16.6798 H       1  <0>         0.0658
     39 H13        24.1689  -21.6123  -18.6596 H       1  <0>         0.1635
     40 H14        25.6266  -21.0966  -19.1848 H       1  <0>         0.1635
@<TRIPOS>BOND
     1     1    11    1
     2     2     4   ar
     3     2    11   ar
     4     3     5   ar
     5     3    11   ar
     6     4    12   ar
     7     5    12   ar
     8     6     8   ar
     9     6    13   ar
    10     7     9   ar
    11     7    13   ar
    12     8    14   ar
    13     9    14   ar
    14    10    15    2
    15    10    16    1
    16    12    15    1
    17    13    20    1
    18    14    26    1
    19    15    20    1
    20    16    17    1
    21    16    19    2
    22    17    23    1
    23    17    24    1
    24    17    25    1
    25    18    26    1
    26    19    20    1
    27    21    26    2
    28    22    26    2
    29     1    27    1
    30     1    28    1
    31     1    29    1
    32     2    30    1
    33     3    31    1
    34     4    32    1
    35     5    33    1
    36     6    34    1
    37     7    35    1
    38     8    36    1
    39     9    37    1
    40    10    38    1
    41    18    39    1
    42    18    40    1
@<TRIPOS>SUBSTRUCTURE
     1 <0>         1 TEMP              0 ****  ****    0 ROOT

