
##########                                Name:        4BO_901_3CHP
##########                    Molecular_Weight:             314.341
##########                DOCK_Rotatable_Bonds:                   8
##########                       Formal_Charge:         0.000200048
##########                     HBond_Acceptors:                   6
##########                        HBond_Donors:                   4
##########                         Heavy_Atoms:                  23
##########                            HA_RMSDs:               0.339
##########                            HA_RMSDh:               0.339
##########                            HA_RMSDm:               0.339
##########                          Grid_Score:          -39.499634
##########                     Grid_vdw_energy:          -43.918297
##########                      Grid_es_energy:            4.418665
##########           Internal_energy_repulsive:           40.488392

@<TRIPOS>MOLECULE
4BO_901_3CHP
 41 42 1 0 0
SMALL
USER_CHARGES


@<TRIPOS>ATOM
      1 C1          9.8803   36.3778   73.1617 C.ar    1  <0>        -0.0617
      2 C2          9.3701   35.4418   72.2556 C.ar    1  <0>        -0.0614
      3 C3          9.6903   37.7520   72.9310 C.ar    1  <0>        -0.0614
      4 C4          8.6701   35.8730   71.1192 C.ar    1  <0>        -0.0564
      5 C5          8.9911   38.1872   71.7950 C.ar    1  <0>        -0.0564
      6 C6          9.0238   41.9838   68.0371 C.ar    1  <0>        -0.0380
      7 C7          9.7845   39.9972   66.8740 C.ar    1  <0>        -0.0380
      8 C8          8.2008   41.1838   68.8516 C.ar    1  <0>        -0.0299
      9 C9          8.9613   39.2000   67.6777 C.ar    1  <0>        -0.0299
     10 C10         7.8131   37.6490   69.7198 C.3     1  <0>         0.0792
     11 C11        14.1337   42.6707   65.2376 C.3     1  <0>         0.0385
     12 C12         8.4803   37.2448   70.8813 C.ar    1  <0>        -0.0214
     13 C13         9.8289   41.3980   67.0446 C.ar    1  <0>         0.0337
     14 C14         8.1637   39.7873   68.6784 C.ar    1  <0>         0.0767
     15 C15        12.6151   42.8148   64.9737 C.3     1  <0>         0.0586
     16 C16        14.7469   41.3977   64.6038 C.2     1  <0>         0.0476
     17 C17        11.7846   41.7235   65.6749 C.2     1  <0>         0.2657
     18 N1         12.1623   44.1257   65.4148 N.4     1  <0>         0.2276
     19 N2         10.7172   42.1829   66.3742 N.am    1  <0>        -0.2809
     20 O1         15.8932   41.0628   65.0000 O.co2   1  <0>        -0.5496
     21 O2         14.0649   40.7959   63.7381 O.co2   1  <0>        -0.5496
     22 O3         12.1368   40.5452   65.6202 O.2     1  <0>        -0.2693
     23 O4          7.3528   39.0235   69.5023 O.3     1  <0>        -0.3401
     24 H1         10.4192   36.0455   74.0368 H       1  <0>         0.0618
     25 H2          9.5154   34.3861   72.4313 H       1  <0>         0.0618
     26 H3         10.0837   38.4747   73.6305 H       1  <0>         0.0618
     27 H4          8.2750   35.1472   70.4238 H       1  <0>         0.0621
     28 H5          8.8448   39.2431   71.6215 H       1  <0>         0.0621
     29 H6          9.0371   43.0548   68.1754 H       1  <0>         0.0637
     30 H7         10.3945   39.5342   66.1125 H       1  <0>         0.0637
     31 H8          7.5926   41.6451   69.6157 H       1  <0>         0.0644
     32 H9          8.9378   38.1304   67.5296 H       1  <0>         0.0644
     33 H10         8.5160   37.4468   68.8982 H       1  <0>         0.0615
     34 H11         6.9044   37.0306   69.6790 H       1  <0>         0.0615
     35 H12        14.6420   43.5471   64.8093 H       1  <0>         0.0385
     36 H13        14.2909   42.6233   66.3253 H       1  <0>         0.0385
     37 H14        12.4628   42.6991   63.8904 H       1  <0>         0.0952
     38 H15        11.1813   44.2153   65.2429 H       1  <0>         0.2002
     39 H16        12.3396   44.2275   66.3937 H       1  <0>         0.2002
     40 H17        12.6550   44.8353   64.9110 H       1  <0>         0.2002
     41 H18        10.5715   43.1720   66.3994 H       1  <0>         0.1550
@<TRIPOS>BOND
     1     1     2   ar
     2     1     3   ar
     3     2     4   ar
     4     3     5   ar
     5     4    12   ar
     6     5    12   ar
     7     6     8   ar
     8     6    13   ar
     9     7     9   ar
    10     7    13   ar
    11     8    14   ar
    12     9    14   ar
    13    10    12    1
    14    10    23    1
    15    11    15    1
    16    11    16    1
    17    13    19    1
    18    14    23    1
    19    15    17    1
    20    15    18    1
    21    16    20    1
    22    16    21    2
    23    17    19   am
    24    17    22    2
    25     1    24    1
    26     2    25    1
    27     3    26    1
    28     4    27    1
    29     5    28    1
    30     6    29    1
    31     7    30    1
    32     8    31    1
    33     9    32    1
    34    10    33    1
    35    10    34    1
    36    11    35    1
    37    11    36    1
    38    15    37    1
    39    18    38    1
    40    18    39    1
    41    18    40    1
    42    19    41    1
@<TRIPOS>SUBSTRUCTURE
     1 <0>         1 TEMP              0 ****  ****    0 ROOT

