
##########                                Name:        ZOL_901_1ZW5
##########                    Molecular_Weight:             268.059
##########                DOCK_Rotatable_Bonds:                   5
##########                       Formal_Charge:             -3.9999
##########                     HBond_Acceptors:                   9
##########                        HBond_Donors:                   1
##########                         Heavy_Atoms:                  16
##########                            HA_RMSDs:              17.388
##########                            HA_RMSDh:              17.337
##########                            HA_RMSDm:              16.651
##########                          Grid_Score:          121.750999
##########                     Grid_vdw_energy:           -6.119606
##########                      Grid_es_energy:          127.870605
##########           Internal_energy_repulsive:           17.201538

@<TRIPOS>MOLECULE
ZOL_901_1ZW5
 22 22 1 0 0
SMALL
USER_CHARGES


@<TRIPOS>ATOM
      1 C1         21.9579   21.0400   -2.1089 C.2     1  <0>         0.0430
      2 C2         23.3162   21.1561   -1.9719 C.2     1  <0>         0.0158
      3 C3         22.7548   21.9079   -3.9302 C.2     1  <0>         0.0878
      4 C4         25.2109   21.9766   -3.3558 C.3     1  <0>         0.0556
      5 C5         25.9971   20.8838   -4.1491 C.3     1  <0>         0.1341
      6 N1         21.6313   21.4872   -3.3343 N.2     1  <0>        -0.2466
      7 N2         23.7904   21.6840   -3.1060 N.pl3   1  <0>        -0.2926
      8 O1         25.7275   21.0574   -5.5370 O.3     1  <0>        -0.3768
      9 O2         27.9666   22.7675   -3.8396 O.3     1  <0>        -0.8106
     10 O3         28.2323   20.6610   -2.5352 O.3     1  <0>        -0.8106
     11 O4         26.2076   18.3210   -4.7967 O.3     1  <0>        -0.8106
     12 O5         24.1950   18.7915   -3.3133 O.3     1  <0>        -0.8106
     13 O6         28.4808   20.7636   -5.0404 O.2     1  <0>        -0.3501
     14 O7         26.3867   19.1561   -2.4010 O.2     1  <0>        -0.3501
     15 P1         27.7568   21.2754   -3.8692 P.3     1  <0>        -0.0270
     16 P2         25.6419   19.1565   -3.6661 P.3     1  <0>        -0.0270
     17 H1         21.2728   20.6580   -1.3664 H       1  <0>         0.0843
     18 H2         23.8976   20.8733   -1.1068 H       1  <0>         0.0799
     19 H3         22.8172   22.3537   -4.9119 H       1  <0>         0.1002
     20 H4         25.7013   22.0915   -2.3779 H       1  <0>         0.0504
     21 H5         25.2584   22.9073   -3.9405 H       1  <0>         0.0504
     22 H6         26.5459   21.0775   -6.0190 H       1  <0>         0.2112
@<TRIPOS>BOND
     1     1     2    2
     2     1     6    1
     3     2     7    1
     4     3     6    2
     5     3     7    1
     6     4     5    1
     7     4     7    1
     8     5     8    1
     9     5    15    1
    10     5    16    1
    11     9    15    1
    12    10    15    1
    13    11    16    1
    14    12    16    1
    15    13    15    2
    16    14    16    2
    17     1    17    1
    18     2    18    1
    19     3    19    1
    20     4    20    1
    21     4    21    1
    22     8    22    1
@<TRIPOS>SUBSTRUCTURE
     1 <0>         1 TEMP              0 ****  ****    0 ROOT

