
##########                                Name:        ZOL_901_1ZW5
##########                    Molecular_Weight:             268.059
##########                DOCK_Rotatable_Bonds:                   5
##########                       Formal_Charge:             -3.9999
##########                     HBond_Acceptors:                   9
##########                        HBond_Donors:                   1
##########                         Heavy_Atoms:                  16
##########                            HA_RMSDs:               6.538
##########                            HA_RMSDh:               6.159
##########                            HA_RMSDm:               5.741
##########                          Grid_Score:          252.852753
##########                     Grid_vdw_energy:          -30.869574
##########                      Grid_es_energy:          283.722321
##########           Internal_energy_repulsive:            8.558947

@<TRIPOS>MOLECULE
ZOL_901_1ZW5
 22 22 1 0 0
SMALL
USER_CHARGES


@<TRIPOS>ATOM
      1 C1         17.2461   37.2869   -6.7774 C.2     1  <0>         0.0430
      2 C2         18.1785   36.4172   -6.2759 C.2     1  <0>         0.0158
      3 C3         18.6829   36.8508   -8.3430 C.2     1  <0>         0.0878
      4 C4         20.2131   35.2629   -7.1166 C.3     1  <0>         0.0556
      5 C5         20.0397   33.8262   -7.7059 C.3     1  <0>         0.1341
      6 N1         17.5599   37.5253   -8.0631 N.2     1  <0>        -0.2466
      7 N2         19.0496   36.1533   -7.2564 N.pl3   1  <0>        -0.2926
      8 O1         19.7087   33.9456   -9.0863 O.3     1  <0>        -0.3768
      9 O2         22.7155   33.9240   -8.3008 O.3     1  <0>        -0.8106
     10 O3         22.1027   32.9000   -6.1132 O.3     1  <0>        -0.8106
     11 O4         19.4258   31.3990   -6.8322 O.3     1  <0>        -0.8106
     12 O5         17.3681   32.7764   -7.4161 O.3     1  <0>        -0.8106
     13 O6         21.6162   31.7997   -8.3269 O.2     1  <0>        -0.3501
     14 O7         18.7520   33.5188   -5.5988 O.2     1  <0>        -0.3501
     15 P1         21.6959   33.0694   -7.5927 P.3     1  <0>        -0.0270
     16 P2         18.7992   32.7783   -6.8656 P.3     1  <0>        -0.0270
     17 H1         16.4097   37.7056   -6.2374 H       1  <0>         0.0843
     18 H2         18.2054   36.0178   -5.2729 H       1  <0>         0.0799
     19 H3         19.2068   36.8656   -9.2873 H       1  <0>         0.1002
     20 H4         20.4197   35.1560   -6.0414 H       1  <0>         0.0504
     21 H5         21.0558   35.7359   -7.6422 H       1  <0>         0.0504
     22 H6         20.3731   33.5138   -9.6103 H       1  <0>         0.2112
@<TRIPOS>BOND
     1     1     2    2
     2     1     6    1
     3     2     7    1
     4     3     6    2
     5     3     7    1
     6     4     5    1
     7     4     7    1
     8     5     8    1
     9     5    15    1
    10     5    16    1
    11     9    15    1
    12    10    15    1
    13    11    16    1
    14    12    16    1
    15    13    15    2
    16    14    16    2
    17     1    17    1
    18     2    18    1
    19     3    19    1
    20     4    20    1
    21     4    21    1
    22     8    22    1
@<TRIPOS>SUBSTRUCTURE
     1 <0>         1 TEMP              0 ****  ****    0 ROOT

