
##########                                Name:        ZOL_901_1ZW5
##########                    Molecular_Weight:             268.059
##########                DOCK_Rotatable_Bonds:                   5
##########                       Formal_Charge:             -3.9999
##########                     HBond_Acceptors:                   9
##########                        HBond_Donors:                   1
##########                         Heavy_Atoms:                  16
##########                            HA_RMSDs:               6.480
##########                            HA_RMSDh:               6.101
##########                            HA_RMSDm:               5.666
##########                          Grid_Score:          252.069733
##########                     Grid_vdw_energy:          -30.370638
##########                      Grid_es_energy:          282.440369
##########           Internal_energy_repulsive:            7.220836

@<TRIPOS>MOLECULE
ZOL_901_1ZW5
 22 22 1 0 0
SMALL
USER_CHARGES


@<TRIPOS>ATOM
      1 C1         17.1122   37.0112   -7.0540 C.2     1  <0>         0.0430
      2 C2         18.1525   36.3283   -6.4806 C.2     1  <0>         0.0158
      3 C3         18.4474   36.3530   -8.6318 C.2     1  <0>         0.0878
      4 C4         20.2014   35.1600   -7.2653 C.3     1  <0>         0.0556
      5 C5         20.1562   33.6639   -7.7139 C.3     1  <0>         0.1341
      6 N1         17.2983   36.9960   -8.3857 N.2     1  <0>        -0.2466
      7 N2         18.9595   35.9233   -7.4678 N.pl3   1  <0>        -0.2926
      8 O1         19.9325   33.6248   -9.1202 O.3     1  <0>        -0.3768
      9 O2         22.8686   33.9357   -8.0179 O.3     1  <0>        -0.8106
     10 O3         22.0886   32.9227   -5.8789 O.3     1  <0>        -0.8106
     11 O4         19.5568   31.2605   -6.7673 O.3     1  <0>        -0.8106
     12 O5         17.4939   32.5844   -7.4486 O.3     1  <0>        -0.8106
     13 O6         21.9244   31.7392   -8.0971 O.2     1  <0>        -0.3501
     14 O7         18.8231   33.4126   -5.6276 O.2     1  <0>        -0.3501
     15 P1         21.8369   33.0283   -7.3984 P.3     1  <0>        -0.0270
     16 P2         18.9112   32.6280   -6.8653 P.3     1  <0>        -0.0270
     17 H1         16.2905   37.4776   -6.5307 H       1  <0>         0.0843
     18 H2         18.2951   36.1498   -5.4251 H       1  <0>         0.0799
     19 H3         18.8891   36.2048   -9.6062 H       1  <0>         0.1002
     20 H4         20.4263   35.1752   -6.1886 H       1  <0>         0.0504
     21 H5         20.9921   35.6556   -7.8477 H       1  <0>         0.0504
     22 H6         20.7220   33.3302   -9.5588 H       1  <0>         0.2112
@<TRIPOS>BOND
     1     1     2    2
     2     1     6    1
     3     2     7    1
     4     3     6    2
     5     3     7    1
     6     4     5    1
     7     4     7    1
     8     5     8    1
     9     5    15    1
    10     5    16    1
    11     9    15    1
    12    10    15    1
    13    11    16    1
    14    12    16    1
    15    13    15    2
    16    14    16    2
    17     1    17    1
    18     2    18    1
    19     3    19    1
    20     4    20    1
    21     4    21    1
    22     8    22    1
@<TRIPOS>SUBSTRUCTURE
     1 <0>         1 TEMP              0 ****  ****    0 ROOT

