
##########                                Name:        ZOL_901_1ZW5
##########                    Molecular_Weight:             268.059
##########                DOCK_Rotatable_Bonds:                   5
##########                       Formal_Charge:             -3.9999
##########                     HBond_Acceptors:                   9
##########                        HBond_Donors:                   1
##########                         Heavy_Atoms:                  16
##########                            HA_RMSDs:               5.176
##########                            HA_RMSDh:               4.975
##########                            HA_RMSDm:               4.313
##########                          Grid_Score:          253.592087
##########                     Grid_vdw_energy:          -31.922287
##########                      Grid_es_energy:          285.514374
##########           Internal_energy_repulsive:            9.494368

@<TRIPOS>MOLECULE
ZOL_901_1ZW5
 22 22 1 0 0
SMALL
USER_CHARGES


@<TRIPOS>ATOM
      1 C1         16.3736   30.5831   -5.7840 C.2     1  <0>         0.0430
      2 C2         17.2158   31.6510   -5.6178 C.2     1  <0>         0.0158
      3 C3         16.9751   31.2885   -7.7452 C.2     1  <0>         0.0878
      4 C4         18.4819   33.2032   -7.0894 C.3     1  <0>         0.0556
      5 C5         19.7383   32.8894   -7.9639 C.3     1  <0>         0.1341
      6 N1         16.2550   30.3581   -7.1045 N.2     1  <0>        -0.2466
      7 N2         17.5827   32.0662   -6.8354 N.pl3   1  <0>        -0.2926
      8 O1         19.3297   32.0737   -9.0579 O.3     1  <0>        -0.3768
      9 O2         19.5220   34.8042   -9.9158 O.3     1  <0>        -0.8106
     10 O3         19.9807   35.6215   -7.6069 O.3     1  <0>        -0.8106
     11 O4         21.8896   31.3525   -8.1674 O.3     1  <0>        -0.8106
     12 O5         20.7950   31.2023   -5.8757 O.3     1  <0>        -0.8106
     13 O6         21.6792   34.3654   -8.9798 O.2     1  <0>        -0.3501
     14 O7         21.7402   33.3062   -6.5457 O.2     1  <0>        -0.3501
     15 P1         20.2580   34.5042   -8.6354 P.3     1  <0>        -0.0270
     16 P2         21.1255   32.0865   -7.0840 P.3     1  <0>        -0.0270
     17 H1         15.8917   30.0228   -4.9964 H       1  <0>         0.0843
     18 H2         17.5265   32.0791   -4.6762 H       1  <0>         0.0799
     19 H3         17.0539   31.3951   -8.8170 H       1  <0>         0.1002
     20 H4         18.8404   33.5649   -6.1143 H       1  <0>         0.0504
     21 H5         17.8988   33.9745   -7.6140 H       1  <0>         0.0504
     22 H6         19.6168   32.4689   -9.8727 H       1  <0>         0.2112
@<TRIPOS>BOND
     1     1     2    2
     2     1     6    1
     3     2     7    1
     4     3     6    2
     5     3     7    1
     6     4     5    1
     7     4     7    1
     8     5     8    1
     9     5    15    1
    10     5    16    1
    11     9    15    1
    12    10    15    1
    13    11    16    1
    14    12    16    1
    15    13    15    2
    16    14    16    2
    17     1    17    1
    18     2    18    1
    19     3    19    1
    20     4    20    1
    21     4    21    1
    22     8    22    1
@<TRIPOS>SUBSTRUCTURE
     1 <0>         1 TEMP              0 ****  ****    0 ROOT

