
##########                                Name:        ZOL_901_1ZW5
##########                    Molecular_Weight:             268.059
##########                DOCK_Rotatable_Bonds:                   5
##########                       Formal_Charge:             -3.9999
##########                     HBond_Acceptors:                   9
##########                        HBond_Donors:                   1
##########                         Heavy_Atoms:                  16
##########                            HA_RMSDs:               6.452
##########                            HA_RMSDh:               6.168
##########                            HA_RMSDm:               5.652
##########                          Grid_Score:          252.132050
##########                     Grid_vdw_energy:          -30.443047
##########                      Grid_es_energy:          282.575104
##########           Internal_energy_repulsive:           10.200446

@<TRIPOS>MOLECULE
ZOL_901_1ZW5
 22 22 1 0 0
SMALL
USER_CHARGES


@<TRIPOS>ATOM
      1 C1         16.9407   37.0116   -6.9697 C.2     1  <0>         0.0430
      2 C2         17.8658   36.2365   -6.3209 C.2     1  <0>         0.0158
      3 C3         18.5525   36.5722   -8.3533 C.2     1  <0>         0.0878
      4 C4         20.0388   35.1655   -6.8772 C.3     1  <0>         0.0556
      5 C5         20.2812   33.9268   -7.7983 C.3     1  <0>         0.1341
      6 N1         17.3697   37.1892   -8.2317 N.2     1  <0>        -0.2466
      7 N2         18.8461   35.9688   -7.1909 N.pl3   1  <0>        -0.2926
      8 O1         20.2239   34.3594   -9.1543 O.3     1  <0>        -0.3768
      9 O2         22.9631   34.5007   -7.8334 O.3     1  <0>        -0.8106
     10 O3         22.1572   33.0829   -5.9493 O.3     1  <0>        -0.8106
     11 O4         20.0045   31.4001   -7.0428 O.3     1  <0>        -0.8106
     12 O5         18.2370   32.1152   -8.7271 O.3     1  <0>        -0.8106
     13 O6         22.2661   32.2671   -8.3305 O.2     1  <0>        -0.3501
     14 O7         18.2481   33.1788   -6.5736 O.2     1  <0>        -0.3501
     15 P1         21.9959   33.4107   -7.4492 P.3     1  <0>        -0.0270
     16 P2         19.1296   32.5283   -7.5508 P.3     1  <0>        -0.0270
     17 H1         16.0307   37.4083   -6.5442 H       1  <0>         0.0843
     18 H2         17.8132   35.9029   -5.2951 H       1  <0>         0.0799
     19 H3         19.1683   36.5620   -9.2405 H       1  <0>         0.1002
     20 H4         19.9254   34.7944   -5.8479 H       1  <0>         0.0504
     21 H5         20.9147   35.8242   -6.9722 H       1  <0>         0.0504
     22 H6         20.9341   33.9618   -9.6443 H       1  <0>         0.2112
@<TRIPOS>BOND
     1     1     2    2
     2     1     6    1
     3     2     7    1
     4     3     6    2
     5     3     7    1
     6     4     5    1
     7     4     7    1
     8     5     8    1
     9     5    15    1
    10     5    16    1
    11     9    15    1
    12    10    15    1
    13    11    16    1
    14    12    16    1
    15    13    15    2
    16    14    16    2
    17     1    17    1
    18     2    18    1
    19     3    19    1
    20     4    20    1
    21     4    21    1
    22     8    22    1
@<TRIPOS>SUBSTRUCTURE
     1 <0>         1 TEMP              0 ****  ****    0 ROOT

