
##########                                Name:        ZOL_901_1ZW5
##########                    Molecular_Weight:             268.059
##########                DOCK_Rotatable_Bonds:                   5
##########                       Formal_Charge:             -3.9999
##########                     HBond_Acceptors:                   9
##########                        HBond_Donors:                   1
##########                         Heavy_Atoms:                  16
##########                            HA_RMSDs:               5.135
##########                            HA_RMSDh:               5.135
##########                            HA_RMSDm:               4.467
##########                          Grid_Score:          253.940247
##########                     Grid_vdw_energy:          -32.033791
##########                      Grid_es_energy:          285.974030
##########           Internal_energy_repulsive:            7.898180

@<TRIPOS>MOLECULE
ZOL_901_1ZW5
 22 22 1 0 0
SMALL
USER_CHARGES


@<TRIPOS>ATOM
      1 C1         16.5949   30.7844   -5.9385 C.2     1  <0>         0.0430
      2 C2         17.5325   31.7466   -5.6697 C.2     1  <0>         0.0158
      3 C3         16.9759   31.8932   -7.7635 C.2     1  <0>         0.0878
      4 C4         18.7028   33.5366   -6.9365 C.3     1  <0>         0.0556
      5 C5         19.9354   33.2821   -7.8626 C.3     1  <0>         0.1341
      6 N1         16.2798   30.8741   -7.2427 N.2     1  <0>        -0.2466
      7 N2         17.7609   32.4133   -6.8069 N.pl3   1  <0>        -0.2926
      8 O1         19.4597   32.8267   -9.1257 O.3     1  <0>        -0.3768
      9 O2         19.8171   35.9983   -7.5006 O.3     1  <0>        -0.8106
     10 O3         22.0880   34.9730   -7.4659 O.3     1  <0>        -0.8106
     11 O4         22.2733   32.0944   -8.2564 O.3     1  <0>        -0.8106
     12 O5         20.6982   30.7003   -6.8253 O.3     1  <0>        -0.8106
     13 O6         20.6983   35.1574   -9.5593 O.2     1  <0>        -0.3501
     14 O7         21.4594   32.8051   -5.9540 O.2     1  <0>        -0.3501
     15 P1         20.6852   34.9269   -8.1087 P.3     1  <0>        -0.0270
     16 P2         21.1747   32.1052   -7.2127 P.3     1  <0>        -0.0270
     17 H1         16.1829   30.0805   -5.2303 H       1  <0>         0.0843
     18 H2         18.0014   31.9328   -4.7148 H       1  <0>         0.0799
     19 H3         16.9156   32.2394   -8.7848 H       1  <0>         0.1002
     20 H4         19.0867   33.7633   -5.9309 H       1  <0>         0.0504
     21 H5         18.1458   34.3880   -7.3548 H       1  <0>         0.0504
     22 H6         19.5940   33.5040   -9.7781 H       1  <0>         0.2112
@<TRIPOS>BOND
     1     1     2    2
     2     1     6    1
     3     2     7    1
     4     3     6    2
     5     3     7    1
     6     4     5    1
     7     4     7    1
     8     5     8    1
     9     5    15    1
    10     5    16    1
    11     9    15    1
    12    10    15    1
    13    11    16    1
    14    12    16    1
    15    13    15    2
    16    14    16    2
    17     1    17    1
    18     2    18    1
    19     3    19    1
    20     4    20    1
    21     4    21    1
    22     8    22    1
@<TRIPOS>SUBSTRUCTURE
     1 <0>         1 TEMP              0 ****  ****    0 ROOT

