
##########                                Name:        ZOL_901_1ZW5
##########                    Molecular_Weight:             268.059
##########                DOCK_Rotatable_Bonds:                   5
##########                       Formal_Charge:             -3.9999
##########                     HBond_Acceptors:                   9
##########                        HBond_Donors:                   1
##########                         Heavy_Atoms:                  16
##########                            HA_RMSDs:              21.243
##########                            HA_RMSDh:              21.224
##########                            HA_RMSDm:              20.494
##########                          Grid_Score:           94.425186
##########                     Grid_vdw_energy:           -3.410939
##########                      Grid_es_energy:           97.836128
##########           Internal_energy_repulsive:            9.848203

@<TRIPOS>MOLECULE
ZOL_901_1ZW5
 22 22 1 0 0
SMALL
USER_CHARGES


@<TRIPOS>ATOM
      1 C1         26.6542   22.1651   -2.8264 C.2     1  <0>         0.0430
      2 C2         26.7675   20.9755   -2.1560 C.2     1  <0>         0.0158
      3 C3         27.9527   22.4681   -1.1154 C.2     1  <0>         0.0878
      4 C4         27.9479   20.1440   -0.1328 C.3     1  <0>         0.0556
      5 C5         29.4467   19.7026   -0.1502 C.3     1  <0>         0.1341
      6 N1         27.4122   23.0704   -2.1829 N.2     1  <0>        -0.2466
      7 N2         27.5775   21.1793   -1.1110 N.pl3   1  <0>        -0.2926
      8 O1         30.2330   20.8052   -0.5920 O.3     1  <0>        -0.3768
      9 O2         29.1706   18.1390    2.0864 O.3     1  <0>        -0.8106
     10 O3         31.3897   19.2244    1.7595 O.3     1  <0>        -0.8106
     11 O4         31.2938   17.9712   -0.9392 O.3     1  <0>        -0.8106
     12 O5         29.4444   18.2782   -2.6591 O.3     1  <0>        -0.8106
     13 O6         29.3088   20.5112    2.3608 O.2     1  <0>        -0.3501
     14 O7         28.8704   17.3127   -0.5361 O.2     1  <0>        -0.3501
     15 P1         29.8629   19.3852    1.5975 P.3     1  <0>        -0.0270
     16 P2         29.8197   18.2337   -1.1731 P.3     1  <0>        -0.0270
     17 H1         26.0626   22.3436   -3.7122 H       1  <0>         0.0843
     18 H2         26.2904   20.0440   -2.4224 H       1  <0>         0.0799
     19 H3         28.5861   22.9414   -0.3797 H       1  <0>         0.1002
     20 H4         27.3390   19.2535   -0.3479 H       1  <0>         0.0504
     21 H5         27.7333   20.5446    0.8691 H       1  <0>         0.0504
     22 H6         29.7746   21.6163   -0.4062 H       1  <0>         0.2112
@<TRIPOS>BOND
     1     1     2    2
     2     1     6    1
     3     2     7    1
     4     3     6    2
     5     3     7    1
     6     4     5    1
     7     4     7    1
     8     5     8    1
     9     5    15    1
    10     5    16    1
    11     9    15    1
    12    10    15    1
    13    11    16    1
    14    12    16    1
    15    13    15    2
    16    14    16    2
    17     1    17    1
    18     2    18    1
    19     3    19    1
    20     4    20    1
    21     4    21    1
    22     8    22    1
@<TRIPOS>SUBSTRUCTURE
     1 <0>         1 TEMP              0 ****  ****    0 ROOT

