
##########                                Name:        ZOL_901_1ZW5
##########                    Molecular_Weight:             268.059
##########                DOCK_Rotatable_Bonds:                   5
##########                       Formal_Charge:             -3.9999
##########                     HBond_Acceptors:                   9
##########                        HBond_Donors:                   1
##########                         Heavy_Atoms:                  16
##########                            HA_RMSDs:              17.390
##########                            HA_RMSDh:              17.350
##########                            HA_RMSDm:              16.302
##########                          Grid_Score:          135.093842
##########                     Grid_vdw_energy:           -6.349544
##########                      Grid_es_energy:          141.443390
##########           Internal_energy_repulsive:           16.355021

@<TRIPOS>MOLECULE
ZOL_901_1ZW5
 22 22 1 0 0
SMALL
USER_CHARGES


@<TRIPOS>ATOM
      1 C1         24.6082   18.8526   -2.5451 C.2     1  <0>         0.0430
      2 C2         24.9079   19.4405   -3.7459 C.2     1  <0>         0.0158
      3 C3         22.7486   19.3978   -3.5199 C.2     1  <0>         0.0878
      4 C4         23.6414   20.4230   -5.6457 C.3     1  <0>         0.0556
      5 C5         23.7250   19.4798   -6.8886 C.3     1  <0>         0.1341
      6 N1         23.2688   18.8130   -2.4328 N.2     1  <0>        -0.2466
      7 N2         23.7507   19.7615   -4.3356 N.pl3   1  <0>        -0.2926
      8 O1         22.4030   19.2530   -7.3682 O.3     1  <0>        -0.3768
      9 O2         24.1371   21.8741   -8.1617 O.3     1  <0>        -0.8106
     10 O3         26.1362   20.4154   -7.8692 O.3     1  <0>        -0.8106
     11 O4         24.6813   17.2608   -7.9810 O.3     1  <0>        -0.8106
     12 O5         23.9456   16.9237   -5.5690 O.3     1  <0>        -0.8106
     13 O6         24.2530   19.8610   -9.4486 O.2     1  <0>        -0.3501
     14 O7         25.7857   18.4067   -5.9971 O.2     1  <0>        -0.3501
     15 P1         24.6188   20.4461   -8.1518 P.3     1  <0>        -0.0270
     16 P2         24.5575   17.8772   -6.6022 P.3     1  <0>        -0.0270
     17 H1         25.3196   18.4867   -1.8195 H       1  <0>         0.0843
     18 H2         25.8970   19.6133   -4.1435 H       1  <0>         0.0799
     19 H3         21.6964   19.5514   -3.7090 H       1  <0>         0.1002
     20 H4         24.4691   21.1436   -5.7217 H       1  <0>         0.0504
     21 H5         22.6649   20.9284   -5.6798 H       1  <0>         0.0504
     22 H6         22.4310   19.0668   -8.2993 H       1  <0>         0.2112
@<TRIPOS>BOND
     1     1     2    2
     2     1     6    1
     3     2     7    1
     4     3     6    2
     5     3     7    1
     6     4     5    1
     7     4     7    1
     8     5     8    1
     9     5    15    1
    10     5    16    1
    11     9    15    1
    12    10    15    1
    13    11    16    1
    14    12    16    1
    15    13    15    2
    16    14    16    2
    17     1    17    1
    18     2    18    1
    19     3    19    1
    20     4    20    1
    21     4    21    1
    22     8    22    1
@<TRIPOS>SUBSTRUCTURE
     1 <0>         1 TEMP              0 ****  ****    0 ROOT

