
##########                                Name:        ZOL_901_1ZW5
##########                    Molecular_Weight:             268.059
##########                DOCK_Rotatable_Bonds:                   5
##########                       Formal_Charge:             -3.9999
##########                     HBond_Acceptors:                   9
##########                        HBond_Donors:                   1
##########                         Heavy_Atoms:                  16
##########                            HA_RMSDs:               6.519
##########                            HA_RMSDh:               6.089
##########                            HA_RMSDm:               5.688
##########                          Grid_Score:          252.103577
##########                     Grid_vdw_energy:          -29.850641
##########                      Grid_es_energy:          281.954224
##########           Internal_energy_repulsive:            9.826452

@<TRIPOS>MOLECULE
ZOL_901_1ZW5
 22 22 1 0 0
SMALL
USER_CHARGES


@<TRIPOS>ATOM
      1 C1         17.3820   37.1730   -6.9223 C.2     1  <0>         0.0430
      2 C2         18.4347   36.4631   -6.4072 C.2     1  <0>         0.0158
      3 C3         18.4397   36.2330   -8.5665 C.2     1  <0>         0.0878
      4 C4         20.2648   35.0371   -7.2992 C.3     1  <0>         0.0556
      5 C5         20.0720   33.5317   -7.6706 C.3     1  <0>         0.1341
      6 N1         17.3863   37.0001   -8.2559 N.2     1  <0>        -0.2466
      7 N2         19.0688   35.8843   -7.4332 N.pl3   1  <0>        -0.2926
      8 O1         19.7654   33.4489   -9.0593 O.3     1  <0>        -0.3768
      9 O2         22.7791   33.5759   -8.1097 O.3     1  <0>        -0.8106
     10 O3         22.0277   32.6871   -5.9064 O.3     1  <0>        -0.8106
     11 O4         19.4934   31.3868   -6.2227 O.3     1  <0>        -0.8106
     12 O5         17.4501   32.3629   -7.3823 O.3     1  <0>        -0.8106
     13 O6         21.6614   31.4612   -8.0769 O.2     1  <0>        -0.3501
     14 O7         18.5482   33.6916   -5.7097 O.2     1  <0>        -0.3501
     15 P1         21.7107   32.7716   -7.4149 P.3     1  <0>        -0.0270
     16 P2         18.7976   32.6431   -6.7065 P.3     1  <0>        -0.0270
     17 H1         16.6758   37.7649   -6.3588 H       1  <0>         0.0843
     18 H2         18.7033   36.3852   -5.3641 H       1  <0>         0.0799
     19 H3         18.7342   35.9429   -9.5642 H       1  <0>         0.1002
     20 H4         20.5832   35.0795   -6.2472 H       1  <0>         0.0504
     21 H5         21.0358   35.4463   -7.9688 H       1  <0>         0.0504
     22 H6         19.8181   32.5436   -9.3423 H       1  <0>         0.2112
@<TRIPOS>BOND
     1     1     2    2
     2     1     6    1
     3     2     7    1
     4     3     6    2
     5     3     7    1
     6     4     5    1
     7     4     7    1
     8     5     8    1
     9     5    15    1
    10     5    16    1
    11     9    15    1
    12    10    15    1
    13    11    16    1
    14    12    16    1
    15    13    15    2
    16    14    16    2
    17     1    17    1
    18     2    18    1
    19     3    19    1
    20     4    20    1
    21     4    21    1
    22     8    22    1
@<TRIPOS>SUBSTRUCTURE
     1 <0>         1 TEMP              0 ****  ****    0 ROOT

