
##########                                Name:          11N_1_2ZEC
##########                    Molecular_Weight:             349.453
##########                DOCK_Rotatable_Bonds:                   5
##########                       Formal_Charge:              1.0002
##########                     HBond_Acceptors:                   4
##########                        HBond_Donors:                   3
##########                         Heavy_Atoms:                  26
##########                            HA_RMSDs:               0.613
##########                            HA_RMSDh:               0.613
##########                            HA_RMSDm:               0.578
##########                          Grid_Score:         -146.017471
##########                     Grid_vdw_energy:          -47.992336
##########                      Grid_es_energy:          -98.025139
##########           Internal_energy_repulsive:           10.374651

@<TRIPOS>MOLECULE
11N_1_2ZEC
 51 54 1 0 0
SMALL
USER_CHARGES


@<TRIPOS>ATOM
      1 C1         31.5459   72.3133   82.6652 C.ar    1  <0>        -0.0617
      2 C2         30.1414   72.4245   82.5207 C.ar    1  <0>        -0.0612
      3 C3         32.3125   73.4334   83.0976 C.ar    1  <0>        -0.0612
      4 C4         29.4838   73.6457   82.8159 C.ar    1  <0>        -0.0546
      5 C5         31.6508   74.6615   83.3923 C.ar    1  <0>        -0.0546
      6 C6         19.7842   77.7583   83.6309 C.ar    1  <0>        -0.0511
      7 C7         20.1153   78.1687   84.9653 C.ar    1  <0>        -0.0310
      8 C8         22.2009   77.7875   82.9902 C.ar    1  <0>        -0.0473
      9 C9         24.6039   79.3495   83.9054 C.3     1  <0>        -0.0252
     10 C10        24.5404   77.1674   85.2205 C.3     1  <0>        -0.0252
     11 C11        26.0928   79.4764   84.2839 C.3     1  <0>         0.0158
     12 C12        26.0124   77.3416   85.6124 C.3     1  <0>         0.0158
     13 C13        23.4255   79.2973   86.2064 C.3     1  <0>         0.0640
     14 C14        20.5155   77.1180   81.2172 C.3     1  <0>        -0.0094
     15 C15        29.5635   76.1113   83.5639 C.2     1  <0>        -0.0497
     16 C16        28.2867   76.2154   83.8985 C.2     1  <0>         0.0009
     17 C17        30.2485   74.7688   83.2598 C.ar    1  <0>        -0.0249
     18 C18        20.8398   77.5543   82.6482 C.ar    1  <0>        -0.0026
     19 C19        21.4579   78.3992   85.2978 C.ar    1  <0>         0.0800
     20 C20        22.5211   78.2033   84.2803 C.ar    1  <0>        -0.0085
     21 C21        27.6792   77.6120   83.7118 C.2     1  <0>         0.2394
     22 C22        23.8287   78.5251   84.9754 C.3     1  <0>         0.0249
     23 N1         20.4933   78.3130   80.3940 N.4     1  <0>         0.2218
     24 N2         26.6865   78.1853   84.6232 N.am    1  <0>        -0.2979
     25 O1         28.1330   78.3023   82.8603 O.2     1  <0>        -0.2706
     26 O2         22.1147   78.8066   86.5436 O.3     1  <0>        -0.3435
     27 H1         32.0371   71.3766   82.4469 H       1  <0>         0.0618
     28 H2         29.5677   71.5740   82.1835 H       1  <0>         0.0618
     29 H3         33.3845   73.3531   83.2011 H       1  <0>         0.0618
     30 H4         28.4125   73.7266   82.7061 H       1  <0>         0.0623
     31 H5         32.2256   75.5155   83.7192 H       1  <0>         0.0623
     32 H6         18.7520   77.6006   83.3550 H       1  <0>         0.0623
     33 H7         19.3394   78.2986   85.7051 H       1  <0>         0.0643
     34 H8         22.9793   77.6432   82.2556 H       1  <0>         0.0626
     35 H9         24.1637   80.3554   83.8398 H       1  <0>         0.0290
     36 H10        24.5233   78.8409   82.9333 H       1  <0>         0.0290
     37 H11        24.4933   76.5763   84.2940 H       1  <0>         0.0290
     38 H12        24.0214   76.6435   86.0368 H       1  <0>         0.0290
     39 H13        26.6379   79.8987   83.4268 H       1  <0>         0.0465
     40 H14        26.1776   80.1416   85.1559 H       1  <0>         0.0465
     41 H15        26.0741   77.8174   86.6023 H       1  <0>         0.0465
     42 H16        26.5011   76.3567   85.6474 H       1  <0>         0.0465
     43 H17        24.1343   79.1240   87.0295 H       1  <0>         0.0574
     44 H18        23.4008   80.3779   86.0024 H       1  <0>         0.0574
     45 H19        21.2818   76.4192   80.8508 H       1  <0>         0.0866
     46 H20        19.5363   76.6177   81.1860 H       1  <0>         0.0866
     47 H21        30.1530   77.0140   83.5015 H       1  <0>         0.0625
     48 H22        27.7155   75.3796   84.2747 H       1  <0>         0.0670
     49 H23        20.2834   78.0633   79.4487 H       1  <0>         0.1997
     50 H24        19.7937   78.9403   80.7361 H       1  <0>         0.1997
     51 H25        21.3876   78.7591   80.4301 H       1  <0>         0.1997
@<TRIPOS>BOND
     1     1     2   ar
     2     1     3   ar
     3     2     4   ar
     4     3     5   ar
     5     4    17   ar
     6     5    17   ar
     7     6     7   ar
     8     6    18   ar
     9     7    19   ar
    10     8    18   ar
    11     8    20   ar
    12     9    11    1
    13     9    22    1
    14    10    12    1
    15    10    22    1
    16    11    24    1
    17    12    24    1
    18    13    22    1
    19    13    26    1
    20    14    18    1
    21    14    23    1
    22    15    16    2
    23    15    17    1
    24    16    21    1
    25    19    20   ar
    26    19    26    1
    27    20    22    1
    28    21    24   am
    29    21    25    2
    30     1    27    1
    31     2    28    1
    32     3    29    1
    33     4    30    1
    34     5    31    1
    35     6    32    1
    36     7    33    1
    37     8    34    1
    38     9    35    1
    39     9    36    1
    40    10    37    1
    41    10    38    1
    42    11    39    1
    43    11    40    1
    44    12    41    1
    45    12    42    1
    46    13    43    1
    47    13    44    1
    48    14    45    1
    49    14    46    1
    50    15    47    1
    51    16    48    1
    52    23    49    1
    53    23    50    1
    54    23    51    1
@<TRIPOS>SUBSTRUCTURE
     1 <0>         1 TEMP              0 ****  ****    0 ROOT

