
##########                                Name:          11N_1_2ZEC
##########                    Molecular_Weight:             349.453
##########                DOCK_Rotatable_Bonds:                   5
##########                       Formal_Charge:              1.0002
##########                     HBond_Acceptors:                   4
##########                        HBond_Donors:                   3
##########                         Heavy_Atoms:                  26
##########                            HA_RMSDs:               0.475
##########                            HA_RMSDh:               0.475
##########                            HA_RMSDm:               0.475
##########                          Grid_Score:         -148.469116
##########                     Grid_vdw_energy:          -51.243019
##########                      Grid_es_energy:          -97.226105
##########           Internal_energy_repulsive:           12.416772

@<TRIPOS>MOLECULE
11N_1_2ZEC
 51 54 1 0 0
SMALL
USER_CHARGES


@<TRIPOS>ATOM
      1 C1         30.8881   71.7849   82.6909 C.ar    1  <0>        -0.0617
      2 C2         29.5395   72.0023   83.0648 C.ar    1  <0>        -0.0612
      3 C3         31.7839   72.8857   82.5684 C.ar    1  <0>        -0.0612
      4 C4         29.0712   73.3138   83.3324 C.ar    1  <0>        -0.0546
      5 C5         31.3118   74.2043   82.8357 C.ar    1  <0>        -0.0546
      6 C6         19.9310   77.8341   83.7521 C.ar    1  <0>        -0.0511
      7 C7         20.2503   78.2702   85.0812 C.ar    1  <0>        -0.0310
      8 C8         22.3570   77.8012   83.1480 C.ar    1  <0>        -0.0473
      9 C9         24.7764   79.3385   84.0620 C.3     1  <0>        -0.0252
     10 C10        24.6507   77.1905   85.4279 C.3     1  <0>        -0.0252
     11 C11        26.2618   79.4459   84.4601 C.3     1  <0>         0.0158
     12 C12        26.1199   77.3458   85.8380 C.3     1  <0>         0.0158
     13 C13        23.5632   79.3647   86.3453 C.3     1  <0>         0.0640
     14 C14        20.6852   77.1215   81.3660 C.3     1  <0>        -0.0094
     15 C15        29.4820   75.8542   83.4818 C.2     1  <0>        -0.0497
     16 C16        28.3968   76.1349   84.1864 C.2     1  <0>         0.0009
     17 C17        29.9698   74.4198   83.2204 C.ar    1  <0>        -0.0249
     18 C18        20.9969   77.5860   82.7909 C.ar    1  <0>        -0.0026
     19 C19        21.5921   78.4828   85.4286 C.ar    1  <0>         0.0800
     20 C20        22.6662   78.2420   84.4325 C.ar    1  <0>        -0.0085
     21 C21        27.8196   77.5380   83.9571 C.2     1  <0>         0.2394
     22 C22        23.9694   78.5553   85.1396 C.3     1  <0>         0.0249
     23 N1         20.4827   78.3093   80.5571 N.4     1  <0>         0.2218
     24 N2         26.8250   78.1522   84.8392 N.am    1  <0>        -0.2979
     25 O1         28.2994   78.1986   83.0964 O.2     1  <0>        -0.2706
     26 O2         22.2382   78.9076   86.6742 O.3     1  <0>        -0.3435
     27 H1         31.2382   70.7816   82.4980 H       1  <0>         0.0618
     28 H2         28.8635   71.1641   83.1467 H       1  <0>         0.0618
     29 H3         32.8107   72.7230   82.2759 H       1  <0>         0.0618
     30 H4         28.0425   73.4759   83.6188 H       1  <0>         0.0623
     31 H5         31.9848   75.0439   82.7433 H       1  <0>         0.0623
     32 H6         18.9001   77.6896   83.4644 H       1  <0>         0.0623
     33 H7         19.4662   78.4329   85.8058 H       1  <0>         0.0643
     34 H8         23.1433   77.6242   82.4290 H       1  <0>         0.0626
     35 H9         24.3569   80.3508   83.9656 H       1  <0>         0.0290
     36 H10        24.7002   78.8081   83.1013 H       1  <0>         0.0290
     37 H11        24.6058   76.5781   84.5152 H       1  <0>         0.0290
     38 H12        24.1095   76.6966   86.2485 H       1  <0>         0.0290
     39 H13        26.8276   79.8367   83.6015 H       1  <0>         0.0465
     40 H14        26.3466   80.1302   85.3171 H       1  <0>         0.0465
     41 H15        26.1761   77.8442   86.8170 H       1  <0>         0.0465
     42 H16        26.5885   76.3528   85.9040 H       1  <0>         0.0465
     43 H17        24.2563   79.1978   87.1831 H       1  <0>         0.0574
     44 H18        23.5627   80.4403   86.1152 H       1  <0>         0.0574
     45 H19        21.5229   76.5300   80.9681 H       1  <0>         0.0866
     46 H20        19.7782   76.4992   81.3597 H       1  <0>         0.0866
     47 H21        30.0529   76.6735   83.0702 H       1  <0>         0.0625
     48 H22        27.9511   75.4289   84.8716 H       1  <0>         0.0670
     49 H23        20.2762   78.0412   79.6162 H       1  <0>         0.1997
     50 H24        19.7195   78.8387   80.9278 H       1  <0>         0.1997
     51 H25        21.3128   78.8669   80.5702 H       1  <0>         0.1997
@<TRIPOS>BOND
     1     1     2   ar
     2     1     3   ar
     3     2     4   ar
     4     3     5   ar
     5     4    17   ar
     6     5    17   ar
     7     6     7   ar
     8     6    18   ar
     9     7    19   ar
    10     8    18   ar
    11     8    20   ar
    12     9    11    1
    13     9    22    1
    14    10    12    1
    15    10    22    1
    16    11    24    1
    17    12    24    1
    18    13    22    1
    19    13    26    1
    20    14    18    1
    21    14    23    1
    22    15    16    2
    23    15    17    1
    24    16    21    1
    25    19    20   ar
    26    19    26    1
    27    20    22    1
    28    21    24   am
    29    21    25    2
    30     1    27    1
    31     2    28    1
    32     3    29    1
    33     4    30    1
    34     5    31    1
    35     6    32    1
    36     7    33    1
    37     8    34    1
    38     9    35    1
    39     9    36    1
    40    10    37    1
    41    10    38    1
    42    11    39    1
    43    11    40    1
    44    12    41    1
    45    12    42    1
    46    13    43    1
    47    13    44    1
    48    14    45    1
    49    14    46    1
    50    15    47    1
    51    16    48    1
    52    23    49    1
    53    23    50    1
    54    23    51    1
@<TRIPOS>SUBSTRUCTURE
     1 <0>         1 TEMP              0 ****  ****    0 ROOT

