
##########                                Name:          11N_1_2ZEC
##########                    Molecular_Weight:             349.453
##########                DOCK_Rotatable_Bonds:                   5
##########                       Formal_Charge:              1.0002
##########                     HBond_Acceptors:                   4
##########                        HBond_Donors:                   3
##########                         Heavy_Atoms:                  26
##########                            HA_RMSDs:               0.619
##########                            HA_RMSDh:               0.619
##########                            HA_RMSDm:               0.619
##########                          Grid_Score:         -145.648621
##########                     Grid_vdw_energy:          -47.138298
##########                      Grid_es_energy:          -98.510330
##########           Internal_energy_repulsive:           12.083339

@<TRIPOS>MOLECULE
11N_1_2ZEC
 51 54 1 0 0
SMALL
USER_CHARGES


@<TRIPOS>ATOM
      1 C1         30.9527   71.5651   82.8552 C.ar    1  <0>        -0.0617
      2 C2         29.5855   71.7567   83.1711 C.ar    1  <0>        -0.0612
      3 C3         31.8444   72.6757   82.8290 C.ar    1  <0>        -0.0612
      4 C4         29.0938   73.0514   83.4759 C.ar    1  <0>        -0.0546
      5 C5         31.3489   73.9774   83.1336 C.ar    1  <0>        -0.0546
      6 C6         19.9199   77.8824   83.5319 C.ar    1  <0>        -0.0511
      7 C7         20.1913   78.2512   84.8917 C.ar    1  <0>        -0.0310
      8 C8         22.3692   77.7770   83.0402 C.ar    1  <0>        -0.0473
      9 C9         24.7985   79.1779   84.1301 C.3     1  <0>        -0.0252
     10 C10        24.5256   76.9830   85.3963 C.3     1  <0>        -0.0252
     11 C11        26.2660   79.2095   84.6009 C.3     1  <0>         0.0158
     12 C12        25.9782   77.0626   85.8804 C.3     1  <0>         0.0158
     13 C13        23.4788   79.1600   86.3536 C.3     1  <0>         0.0640
     14 C14        20.7603   77.2377   81.1552 C.3     1  <0>        -0.0094
     15 C15        29.4757   75.5844   83.7640 C.2     1  <0>        -0.0497
     16 C16        28.2842   75.8295   84.2866 C.2     1  <0>         0.0009
     17 C17        29.9877   74.1667   83.4606 C.ar    1  <0>        -0.0249
     18 C18        21.0205   77.6311   82.6115 C.ar    1  <0>        -0.0026
     19 C19        21.5219   78.3956   85.3097 C.ar    1  <0>         0.0800
     20 C20        22.6328   78.1526   84.3552 C.ar    1  <0>        -0.0085
     21 C21        27.7725   77.2628   84.0904 C.2     1  <0>         0.2394
     22 C22        23.9114   78.3845   85.1348 C.3     1  <0>         0.0249
     23 N1         20.4911   78.4582   80.4177 N.4     1  <0>         0.2218
     24 N2         26.7607   77.8800   84.9506 N.am    1  <0>        -0.2979
     25 O1         28.3179   77.9381   83.2817 O.2     1  <0>        -0.2706
     26 O2         22.1231   78.7433   86.6008 O.3     1  <0>        -0.3435
     27 H1         31.3203   70.5741   82.6334 H       1  <0>         0.0618
     28 H2         28.9133   70.9116   83.1800 H       1  <0>         0.0618
     29 H3         32.8858   72.5330   82.5808 H       1  <0>         0.0618
     30 H4         28.0509   73.1937   83.7179 H       1  <0>         0.0623
     31 H5         32.0187   74.8245   83.1143 H       1  <0>         0.0623
     32 H6         18.8993   77.7911   83.1907 H       1  <0>         0.0623
     33 H7         19.3800   78.4156   85.5853 H       1  <0>         0.0643
     34 H8         23.1818   77.5980   82.3517 H       1  <0>         0.0626
     35 H9         24.4230   80.2092   84.0574 H       1  <0>         0.0290
     36 H10        24.7485   78.6904   83.1452 H       1  <0>         0.0290
     37 H11        24.5013   76.4105   84.4573 H       1  <0>         0.0290
     38 H12        23.9272   76.4783   86.1691 H       1  <0>         0.0290
     39 H13        26.8869   79.6119   83.7869 H       1  <0>         0.0465
     40 H14        26.3355   79.8546   85.4892 H       1  <0>         0.0465
     41 H15        26.0063   77.5182   86.8813 H       1  <0>         0.0465
     42 H16        26.4050   76.0498   85.9260 H       1  <0>         0.0465
     43 H17        24.1239   78.9316   87.2148 H       1  <0>         0.0574
     44 H18        23.5303   80.2432   86.1696 H       1  <0>         0.0574
     45 H19        21.6408   76.7281   80.7368 H       1  <0>         0.0866
     46 H20        19.8966   76.5592   81.0942 H       1  <0>         0.0866
     47 H21        30.1200   76.4216   83.5397 H       1  <0>         0.0625
     48 H22        27.7149   75.0769   84.8118 H       1  <0>         0.0670
     49 H23        20.3160   78.2368   79.4584 H       1  <0>         0.1997
     50 H24        19.6894   78.9124   80.8065 H       1  <0>         0.1997
     51 H25        21.2822   79.0667   80.4802 H       1  <0>         0.1997
@<TRIPOS>BOND
     1     1     2   ar
     2     1     3   ar
     3     2     4   ar
     4     3     5   ar
     5     4    17   ar
     6     5    17   ar
     7     6     7   ar
     8     6    18   ar
     9     7    19   ar
    10     8    18   ar
    11     8    20   ar
    12     9    11    1
    13     9    22    1
    14    10    12    1
    15    10    22    1
    16    11    24    1
    17    12    24    1
    18    13    22    1
    19    13    26    1
    20    14    18    1
    21    14    23    1
    22    15    16    2
    23    15    17    1
    24    16    21    1
    25    19    20   ar
    26    19    26    1
    27    20    22    1
    28    21    24   am
    29    21    25    2
    30     1    27    1
    31     2    28    1
    32     3    29    1
    33     4    30    1
    34     5    31    1
    35     6    32    1
    36     7    33    1
    37     8    34    1
    38     9    35    1
    39     9    36    1
    40    10    37    1
    41    10    38    1
    42    11    39    1
    43    11    40    1
    44    12    41    1
    45    12    42    1
    46    13    43    1
    47    13    44    1
    48    14    45    1
    49    14    46    1
    50    15    47    1
    51    16    48    1
    52    23    49    1
    53    23    50    1
    54    23    51    1
@<TRIPOS>SUBSTRUCTURE
     1 <0>         1 TEMP              0 ****  ****    0 ROOT

