
##########                                Name:          11N_1_2ZEC
##########                    Molecular_Weight:             349.453
##########                DOCK_Rotatable_Bonds:                   5
##########                       Formal_Charge:              1.0002
##########                     HBond_Acceptors:                   4
##########                        HBond_Donors:                   3
##########                         Heavy_Atoms:                  26
##########                            HA_RMSDs:               0.473
##########                            HA_RMSDh:               0.473
##########                            HA_RMSDm:               0.473
##########                          Grid_Score:         -147.563751
##########                     Grid_vdw_energy:          -49.595554
##########                      Grid_es_energy:          -97.968193
##########           Internal_energy_repulsive:           12.813870

@<TRIPOS>MOLECULE
11N_1_2ZEC
 51 54 1 0 0
SMALL
USER_CHARGES


@<TRIPOS>ATOM
      1 C1         31.0043   71.9326   82.6777 C.ar    1  <0>        -0.0617
      2 C2         29.6997   72.1008   83.2025 C.ar    1  <0>        -0.0612
      3 C3         31.8250   73.0682   82.4208 C.ar    1  <0>        -0.0612
      4 C4         29.2025   73.3977   83.4884 C.ar    1  <0>        -0.0546
      5 C5         31.3238   74.3721   82.7066 C.ar    1  <0>        -0.0546
      6 C6         19.9139   77.7916   83.4761 C.ar    1  <0>        -0.0511
      7 C7         20.1779   78.1990   84.8262 C.ar    1  <0>        -0.0310
      8 C8         22.3606   77.8077   82.9612 C.ar    1  <0>        -0.0473
      9 C9         24.7217   79.3556   84.0010 C.3     1  <0>        -0.0252
     10 C10        24.5782   77.1728   85.3087 C.3     1  <0>        -0.0252
     11 C11        26.1898   79.4740   84.4561 C.3     1  <0>         0.0158
     12 C12        26.0290   77.3385   85.7764 C.3     1  <0>         0.0158
     13 C13        23.4257   79.3081   86.2380 C.3     1  <0>         0.0640
     14 C14        20.7654   77.1492   81.1027 C.3     1  <0>        -0.0094
     15 C15        29.5038   75.9576   83.5202 C.2     1  <0>        -0.0497
     16 C16        28.3826   76.2010   84.1810 C.2     1  <0>         0.0009
     17 C17        30.0269   74.5390   83.2414 C.ar    1  <0>        -0.0249
     18 C18        21.0178   77.5825   82.5491 C.ar    1  <0>        -0.0026
     19 C19        21.5027   78.4217   85.2279 C.ar    1  <0>         0.0800
     20 C20        22.6160   78.2207   84.2666 C.ar    1  <0>        -0.0085
     21 C21        27.7932   77.6011   83.9648 C.2     1  <0>         0.2394
     22 C22        23.8877   78.5347   85.0287 C.3     1  <0>         0.0249
     23 N1         20.4920   78.3482   80.3322 N.4     1  <0>         0.2218
     24 N2         26.7580   78.1792   84.8242 N.am    1  <0>        -0.2979
     25 O1         28.2943   78.2896   83.1386 O.2     1  <0>        -0.2706
     26 O2         22.0965   78.8245   86.5065 O.3     1  <0>        -0.3435
     27 H1         31.3781   70.9405   82.4717 H       1  <0>         0.0618
     28 H2         29.0796   71.2359   83.3862 H       1  <0>         0.0618
     29 H3         32.8174   72.9428   82.0134 H       1  <0>         0.0618
     30 H4         28.2077   73.5223   83.8899 H       1  <0>         0.0623
     31 H5         31.9396   75.2379   82.5129 H       1  <0>         0.0623
     32 H6         18.8965   77.6398   83.1471 H       1  <0>         0.0623
     33 H7         19.3655   78.3327   85.5251 H       1  <0>         0.0643
     34 H8         23.1752   77.6597   82.2677 H       1  <0>         0.0626
     35 H9         24.2910   80.3640   83.9139 H       1  <0>         0.0290
     36 H10        24.6886   78.8483   83.0255 H       1  <0>         0.0290
     37 H11        24.5759   76.5827   84.3803 H       1  <0>         0.0290
     38 H12        24.0149   76.6511   86.0965 H       1  <0>         0.0290
     39 H13        26.7807   79.8938   83.6288 H       1  <0>         0.0465
     40 H14        26.2330   80.1379   85.3321 H       1  <0>         0.0465
     41 H15        26.0420   77.8132   86.7687 H       1  <0>         0.0465
     42 H16        26.5097   76.3508   85.8355 H       1  <0>         0.0465
     43 H17        24.0901   79.1302   87.0964 H       1  <0>         0.0574
     44 H18        23.4175   80.3890   86.0342 H       1  <0>         0.0574
     45 H19        21.6504   76.6338   80.7012 H       1  <0>         0.0866
     46 H20        19.9058   76.4643   81.0564 H       1  <0>         0.0866
     47 H21        30.0793   76.7971   83.1590 H       1  <0>         0.0625
     48 H22        27.9176   75.4687   84.8244 H       1  <0>         0.0670
     49 H23        20.3219   78.1005   79.3784 H       1  <0>         0.1997
     50 H24        19.6863   78.8079   80.7059 H       1  <0>         0.1997
     51 H25        21.2794   78.9627   80.3815 H       1  <0>         0.1997
@<TRIPOS>BOND
     1     1     2   ar
     2     1     3   ar
     3     2     4   ar
     4     3     5   ar
     5     4    17   ar
     6     5    17   ar
     7     6     7   ar
     8     6    18   ar
     9     7    19   ar
    10     8    18   ar
    11     8    20   ar
    12     9    11    1
    13     9    22    1
    14    10    12    1
    15    10    22    1
    16    11    24    1
    17    12    24    1
    18    13    22    1
    19    13    26    1
    20    14    18    1
    21    14    23    1
    22    15    16    2
    23    15    17    1
    24    16    21    1
    25    19    20   ar
    26    19    26    1
    27    20    22    1
    28    21    24   am
    29    21    25    2
    30     1    27    1
    31     2    28    1
    32     3    29    1
    33     4    30    1
    34     5    31    1
    35     6    32    1
    36     7    33    1
    37     8    34    1
    38     9    35    1
    39     9    36    1
    40    10    37    1
    41    10    38    1
    42    11    39    1
    43    11    40    1
    44    12    41    1
    45    12    42    1
    46    13    43    1
    47    13    44    1
    48    14    45    1
    49    14    46    1
    50    15    47    1
    51    16    48    1
    52    23    49    1
    53    23    50    1
    54    23    51    1
@<TRIPOS>SUBSTRUCTURE
     1 <0>         1 TEMP              0 ****  ****    0 ROOT

