
##########                                Name:          11N_1_2ZEC
##########                    Molecular_Weight:             349.453
##########                DOCK_Rotatable_Bonds:                   5
##########                       Formal_Charge:              1.0002
##########                     HBond_Acceptors:                   4
##########                        HBond_Donors:                   3
##########                         Heavy_Atoms:                  26
##########                            HA_RMSDs:               0.704
##########                            HA_RMSDh:               0.704
##########                            HA_RMSDm:               0.704
##########                          Grid_Score:         -143.385513
##########                     Grid_vdw_energy:          -46.399403
##########                      Grid_es_energy:          -96.986115
##########           Internal_energy_repulsive:           12.884359

@<TRIPOS>MOLECULE
11N_1_2ZEC
 51 54 1 0 0
SMALL
USER_CHARGES


@<TRIPOS>ATOM
      1 C1         31.1306   72.2433   83.1604 C.ar    1  <0>        -0.0617
      2 C2         29.8126   72.4405   83.6396 C.ar    1  <0>        -0.0612
      3 C3         31.9636   73.3627   82.8737 C.ar    1  <0>        -0.0612
      4 C4         29.3139   73.7510   83.8502 C.ar    1  <0>        -0.0546
      5 C5         31.4608   74.6803   83.0837 C.ar    1  <0>        -0.0546
      6 C6         20.0991   77.6970   83.3755 C.ar    1  <0>        -0.0511
      7 C7         20.2698   78.1480   84.7269 C.ar    1  <0>        -0.0310
      8 C8         22.5645   77.8404   82.9846 C.ar    1  <0>        -0.0473
      9 C9         24.7792   79.5416   84.1041 C.3     1  <0>        -0.0252
     10 C10        24.6893   77.3831   85.4561 C.3     1  <0>        -0.0252
     11 C11        26.2129   79.7527   84.6297 C.3     1  <0>         0.0158
     12 C12        26.1025   77.6407   85.9922 C.3     1  <0>         0.0158
     13 C13        23.3736   79.4694   86.2732 C.3     1  <0>         0.0640
     14 C14        21.1066   77.0525   81.0647 C.3     1  <0>        -0.0094
     15 C15        29.6263   76.3086   83.7703 C.2     1  <0>        -0.0497
     16 C16        28.5949   76.6039   84.5462 C.2     1  <0>         0.0009
     17 C17        30.1503   74.8766   83.5733 C.ar    1  <0>        -0.0249
     18 C18        21.2593   77.5307   82.5109 C.ar    1  <0>        -0.0026
     19 C19        21.5576   78.4540   85.1894 C.ar    1  <0>         0.0800
     20 C20        22.7287   78.2955   84.2907 C.ar    1  <0>        -0.0085
     21 C21        27.9409   77.9634   84.2661 C.2     1  <0>         0.2394
     22 C22        23.9398   78.6973   85.1082 C.3     1  <0>         0.0249
     23 N1         20.4888   78.1303   80.3145 N.4     1  <0>         0.2218
     24 N2         26.8321   78.5005   85.0577 N.am    1  <0>        -0.2979
     25 O1         28.4452   78.6610   83.4497 O.2     1  <0>        -0.2706
     26 O2         22.0612   78.9173   86.4860 O.3     1  <0>        -0.3435
     27 H1         31.5052   71.2412   83.0118 H       1  <0>         0.0618
     28 H2         29.1834   71.5873   83.8461 H       1  <0>         0.0618
     29 H3         32.9664   73.2148   82.5008 H       1  <0>         0.0618
     30 H4         28.3088   73.8978   84.2172 H       1  <0>         0.0623
     31 H5         32.0860   75.5339   82.8671 H       1  <0>         0.0623
     32 H6         19.1100   77.4809   82.9994 H       1  <0>         0.0623
     33 H7         19.4161   78.2506   85.3804 H       1  <0>         0.0643
     34 H8         23.4209   77.7237   82.3370 H       1  <0>         0.0626
     35 H9         24.2984   80.5219   83.9705 H       1  <0>         0.0290
     36 H10        24.8248   79.0122   83.1409 H       1  <0>         0.0290
     37 H11        24.7677   76.7738   84.5436 H       1  <0>         0.0290
     38 H12        24.1156   76.8476   86.2270 H       1  <0>         0.0290
     39 H13        26.8217   80.1873   83.8232 H       1  <0>         0.0465
     40 H14        26.1738   80.4369   85.4902 H       1  <0>         0.0465
     41 H15        26.0377   78.1368   86.9719 H       1  <0>         0.0465
     42 H16        26.6334   76.6833   86.0998 H       1  <0>         0.0465
     43 H17        24.0015   79.3480   87.1682 H       1  <0>         0.0574
     44 H18        23.3162   80.5435   86.0428 H       1  <0>         0.0574
     45 H19        22.0917   76.8103   80.6393 H       1  <0>         0.0866
     46 H20        20.4742   76.1532   81.0274 H       1  <0>         0.0866
     47 H21        30.1242   77.1134   83.2500 H       1  <0>         0.0625
     48 H22        28.2404   75.9375   85.3187 H       1  <0>         0.0670
     49 H23        20.3738   77.8504   79.3614 H       1  <0>         0.1997
     50 H24        19.5949   78.3417   80.7099 H       1  <0>         0.1997
     51 H25        21.0719   78.9417   80.3555 H       1  <0>         0.1997
@<TRIPOS>BOND
     1     1     2   ar
     2     1     3   ar
     3     2     4   ar
     4     3     5   ar
     5     4    17   ar
     6     5    17   ar
     7     6     7   ar
     8     6    18   ar
     9     7    19   ar
    10     8    18   ar
    11     8    20   ar
    12     9    11    1
    13     9    22    1
    14    10    12    1
    15    10    22    1
    16    11    24    1
    17    12    24    1
    18    13    22    1
    19    13    26    1
    20    14    18    1
    21    14    23    1
    22    15    16    2
    23    15    17    1
    24    16    21    1
    25    19    20   ar
    26    19    26    1
    27    20    22    1
    28    21    24   am
    29    21    25    2
    30     1    27    1
    31     2    28    1
    32     3    29    1
    33     4    30    1
    34     5    31    1
    35     6    32    1
    36     7    33    1
    37     8    34    1
    38     9    35    1
    39     9    36    1
    40    10    37    1
    41    10    38    1
    42    11    39    1
    43    11    40    1
    44    12    41    1
    45    12    42    1
    46    13    43    1
    47    13    44    1
    48    14    45    1
    49    14    46    1
    50    15    47    1
    51    16    48    1
    52    23    49    1
    53    23    50    1
    54    23    51    1
@<TRIPOS>SUBSTRUCTURE
     1 <0>         1 TEMP              0 ****  ****    0 ROOT

