
##########                                Name:          11N_1_2ZEC
##########                    Molecular_Weight:             349.453
##########                DOCK_Rotatable_Bonds:                   5
##########                       Formal_Charge:              1.0002
##########                     HBond_Acceptors:                   4
##########                        HBond_Donors:                   3
##########                         Heavy_Atoms:                  26
##########                            HA_RMSDs:               0.252
##########                            HA_RMSDh:               0.252
##########                            HA_RMSDm:               0.252
##########                          Grid_Score:         -147.817139
##########                     Grid_vdw_energy:          -50.145603
##########                      Grid_es_energy:          -97.671539
##########           Internal_energy_repulsive:           12.264521

@<TRIPOS>MOLECULE
11N_1_2ZEC
 51 54 1 0 0
SMALL
USER_CHARGES


@<TRIPOS>ATOM
      1 C1         31.0775   71.8760   82.6084 C.ar    1  <0>        -0.0617
      2 C2         29.7696   72.0686   83.1162 C.ar    1  <0>        -0.0612
      3 C3         31.8864   72.9982   82.2684 C.ar    1  <0>        -0.0612
      4 C4         29.2573   73.3777   83.3025 C.ar    1  <0>        -0.0546
      5 C5         31.3700   74.3142   82.4540 C.ar    1  <0>        -0.0546
      6 C6         19.9084   77.9106   83.5892 C.ar    1  <0>        -0.0511
      7 C7         20.2954   78.4628   84.8557 C.ar    1  <0>        -0.0310
      8 C8         22.3004   77.8107   82.8680 C.ar    1  <0>        -0.0473
      9 C9         24.7643   79.4110   83.5160 C.3     1  <0>        -0.0252
     10 C10        24.7070   77.3952   85.0743 C.3     1  <0>        -0.0252
     11 C11        26.2682   79.5459   83.8268 C.3     1  <0>         0.0158
     12 C12        26.1953   77.5789   85.3936 C.3     1  <0>         0.0158
     13 C13        23.6693   79.6488   85.8463 C.3     1  <0>         0.0640
     14 C14        20.5393   76.9825   81.2417 C.3     1  <0>        -0.0094
     15 C15        29.5302   75.9359   83.1418 C.2     1  <0>        -0.0497
     16 C16        28.3841   76.2124   83.7443 C.2     1  <0>         0.0009
     17 C17        30.0698   74.5063   82.9720 C.ar    1  <0>        -0.0249
     18 C18        20.9236   77.5715   82.6013 C.ar    1  <0>        -0.0026
     19 C19        21.6533   78.6986   85.1139 C.ar    1  <0>         0.0800
     20 C20        22.6751   78.3635   84.0903 C.ar    1  <0>        -0.0085
     21 C21        27.7969   77.5923   83.4192 C.2     1  <0>         0.2394
     22 C22        24.0129   78.7322   84.6992 C.3     1  <0>         0.0249
     23 N1         20.4903   78.0789   80.2922 N.4     1  <0>         0.2218
     24 N2         26.8491   78.2885   84.2918 N.am    1  <0>        -0.2979
     25 O1         28.2326   78.1703   82.4792 O.2     1  <0>        -0.2706
     26 O2         22.3625   79.2302   86.2818 O.3     1  <0>        -0.3435
     27 H1         31.4628   70.8755   82.4786 H       1  <0>         0.0618
     28 H2         29.1585   71.2131   83.3632 H       1  <0>         0.0618
     29 H3         32.8813   72.8535   81.8737 H       1  <0>         0.0618
     30 H4         28.2600   73.5210   83.6914 H       1  <0>         0.0623
     31 H5         31.9768   75.1698   82.1969 H       1  <0>         0.0623
     32 H6         18.8640   77.7463   83.3684 H       1  <0>         0.0623
     33 H7         19.5495   78.6941   85.6016 H       1  <0>         0.0643
     34 H8         23.0488   77.5656   82.1290 H       1  <0>         0.0626
     35 H9         24.3412   80.4128   83.3503 H       1  <0>         0.0290
     36 H10        24.6388   78.7969   82.6120 H       1  <0>         0.0290
     37 H11        24.6151   76.7035   84.2239 H       1  <0>         0.0290
     38 H12        24.2080   76.9799   85.9624 H       1  <0>         0.0290
     39 H13        26.7897   79.8549   82.9089 H       1  <0>         0.0465
     40 H14        26.3971   80.3040   84.6133 H       1  <0>         0.0465
     41 H15        26.3018   78.1630   86.3197 H       1  <0>         0.0465
     42 H16        26.6660   76.5935   85.5249 H       1  <0>         0.0465
     43 H17        24.4041   79.5542   86.6594 H       1  <0>         0.0574
     44 H18        23.6578   80.6994   85.5206 H       1  <0>         0.0574
     45 H19        21.2864   76.2398   80.9252 H       1  <0>         0.0866
     46 H20        19.5570   76.4914   81.3050 H       1  <0>         0.0866
     47 H21        30.1150   76.7552   82.7503 H       1  <0>         0.0625
     48 H22        27.8987   75.5185   84.4146 H       1  <0>         0.0670
     49 H23        20.2410   77.7280   79.3896 H       1  <0>         0.1997
     50 H24        19.8085   78.7472   80.5899 H       1  <0>         0.1997
     51 H25        21.3877   78.5175   80.2430 H       1  <0>         0.1997
@<TRIPOS>BOND
     1     1     2   ar
     2     1     3   ar
     3     2     4   ar
     4     3     5   ar
     5     4    17   ar
     6     5    17   ar
     7     6     7   ar
     8     6    18   ar
     9     7    19   ar
    10     8    18   ar
    11     8    20   ar
    12     9    11    1
    13     9    22    1
    14    10    12    1
    15    10    22    1
    16    11    24    1
    17    12    24    1
    18    13    22    1
    19    13    26    1
    20    14    18    1
    21    14    23    1
    22    15    16    2
    23    15    17    1
    24    16    21    1
    25    19    20   ar
    26    19    26    1
    27    20    22    1
    28    21    24   am
    29    21    25    2
    30     1    27    1
    31     2    28    1
    32     3    29    1
    33     4    30    1
    34     5    31    1
    35     6    32    1
    36     7    33    1
    37     8    34    1
    38     9    35    1
    39     9    36    1
    40    10    37    1
    41    10    38    1
    42    11    39    1
    43    11    40    1
    44    12    41    1
    45    12    42    1
    46    13    43    1
    47    13    44    1
    48    14    45    1
    49    14    46    1
    50    15    47    1
    51    16    48    1
    52    23    49    1
    53    23    50    1
    54    23    51    1
@<TRIPOS>SUBSTRUCTURE
     1 <0>         1 TEMP              0 ****  ****    0 ROOT

