
##########                                Name:          11N_1_2ZEC
##########                    Molecular_Weight:             349.453
##########                DOCK_Rotatable_Bonds:                   5
##########                       Formal_Charge:              1.0002
##########                     HBond_Acceptors:                   4
##########                        HBond_Donors:                   3
##########                         Heavy_Atoms:                  26
##########                            HA_RMSDs:               0.463
##########                            HA_RMSDh:               0.463
##########                            HA_RMSDm:               0.463
##########                          Grid_Score:         -143.630630
##########                     Grid_vdw_energy:          -45.896420
##########                      Grid_es_energy:          -97.734215
##########           Internal_energy_repulsive:           12.960388

@<TRIPOS>MOLECULE
11N_1_2ZEC
 51 54 1 0 0
SMALL
USER_CHARGES


@<TRIPOS>ATOM
      1 C1         30.7812   71.8725   82.1363 C.ar    1  <0>        -0.0617
      2 C2         29.5792   72.1272   82.8408 C.ar    1  <0>        -0.0612
      3 C3         31.5785   72.9547   81.6651 C.ar    1  <0>        -0.0612
      4 C4         29.1643   73.4592   83.0944 C.ar    1  <0>        -0.0546
      5 C5         31.1597   74.2939   81.9187 C.ar    1  <0>        -0.0546
      6 C6         20.0898   77.7313   83.4891 C.ar    1  <0>        -0.0511
      7 C7         20.4157   78.1750   84.8141 C.ar    1  <0>        -0.0310
      8 C8         22.5046   77.7903   82.8431 C.ar    1  <0>        -0.0473
      9 C9         24.8808   79.4135   83.7212 C.3     1  <0>        -0.0252
     10 C10        24.8584   77.2582   85.0810 C.3     1  <0>        -0.0252
     11 C11        26.3678   79.5747   84.0940 C.3     1  <0>         0.0158
     12 C12        26.3277   77.4666   85.4664 C.3     1  <0>         0.0158
     13 C13        23.7072   79.3877   86.0251 C.3     1  <0>         0.0640
     14 C14        20.8285   77.0546   81.0876 C.3     1  <0>        -0.0094
     15 C15        29.5282   76.0016   82.8727 C.2     1  <0>        -0.0497
     16 C16        28.6190   76.3460   83.7714 C.2     1  <0>         0.0009
     17 C17        29.9671   74.5478   82.6320 C.ar    1  <0>        -0.0249
     18 C18        21.1473   77.5260   82.5087 C.ar    1  <0>        -0.0026
     19 C19        21.7545   78.4361   85.1391 C.ar    1  <0>         0.0800
     20 C20        22.8194   78.2383   84.1238 C.ar    1  <0>        -0.0085
     21 C21        27.9863   77.7274   83.5573 C.2     1  <0>         0.2394
     22 C22        24.1222   78.5976   84.8095 C.3     1  <0>         0.0249
     23 N1         20.6185   78.2385   80.2749 N.4     1  <0>         0.2218
     24 N2         26.9851   78.3016   84.4586 N.am    1  <0>        -0.2979
     25 O1         28.4263   78.4081   82.6908 O.2     1  <0>        -0.2706
     26 O2         22.4060   78.8808   86.3749 O.3     1  <0>        -0.3435
     27 H1         31.0940   70.8546   81.9558 H       1  <0>         0.0618
     28 H2         28.9749   71.3018   83.1871 H       1  <0>         0.0618
     29 H3         32.4915   72.7628   81.1210 H       1  <0>         0.0618
     30 H4         28.2480   73.6500   83.6332 H       1  <0>         0.0623
     31 H5         31.7582   75.1196   81.5631 H       1  <0>         0.0623
     32 H6         19.0601   77.5496   83.2186 H       1  <0>         0.0623
     33 H7         19.6388   78.3063   85.5526 H       1  <0>         0.0643
     34 H8         23.2843   77.6448   82.1101 H       1  <0>         0.0626
     35 H9         24.4226   80.4098   83.6358 H       1  <0>         0.0290
     36 H10        24.8077   78.8836   82.7599 H       1  <0>         0.0290
     37 H11        24.8204   76.6473   84.1670 H       1  <0>         0.0290
     38 H12        24.3502   76.7420   85.9089 H       1  <0>         0.0290
     39 H13        26.9039   79.9888   83.2273 H       1  <0>         0.0465
     40 H14        26.4421   80.2591   84.9520 H       1  <0>         0.0465
     41 H15        26.3824   77.9637   86.4461 H       1  <0>         0.0465
     42 H16        26.8339   76.4914   85.5206 H       1  <0>         0.0465
     43 H17        24.4204   79.2440   86.8502 H       1  <0>         0.0574
     44 H18        23.6629   80.4633   85.7990 H       1  <0>         0.0574
     45 H19        21.6652   76.4633   80.6874 H       1  <0>         0.0866
     46 H20        19.9229   76.4302   81.0894 H       1  <0>         0.0866
     47 H21        29.9842   76.7803   82.2794 H       1  <0>         0.0625
     48 H22        28.3432   75.7026   84.5939 H       1  <0>         0.0670
     49 H23        20.4072   77.9658   79.3363 H       1  <0>         0.1997
     50 H24        19.8563   78.7677   80.6478 H       1  <0>         0.1997
     51 H25        21.4474   78.7979   80.2807 H       1  <0>         0.1997
@<TRIPOS>BOND
     1     1     2   ar
     2     1     3   ar
     3     2     4   ar
     4     3     5   ar
     5     4    17   ar
     6     5    17   ar
     7     6     7   ar
     8     6    18   ar
     9     7    19   ar
    10     8    18   ar
    11     8    20   ar
    12     9    11    1
    13     9    22    1
    14    10    12    1
    15    10    22    1
    16    11    24    1
    17    12    24    1
    18    13    22    1
    19    13    26    1
    20    14    18    1
    21    14    23    1
    22    15    16    2
    23    15    17    1
    24    16    21    1
    25    19    20   ar
    26    19    26    1
    27    20    22    1
    28    21    24   am
    29    21    25    2
    30     1    27    1
    31     2    28    1
    32     3    29    1
    33     4    30    1
    34     5    31    1
    35     6    32    1
    36     7    33    1
    37     8    34    1
    38     9    35    1
    39     9    36    1
    40    10    37    1
    41    10    38    1
    42    11    39    1
    43    11    40    1
    44    12    41    1
    45    12    42    1
    46    13    43    1
    47    13    44    1
    48    14    45    1
    49    14    46    1
    50    15    47    1
    51    16    48    1
    52    23    49    1
    53    23    50    1
    54    23    51    1
@<TRIPOS>SUBSTRUCTURE
     1 <0>         1 TEMP              0 ****  ****    0 ROOT

