
##########                                Name:          11N_1_2ZEC
##########                    Molecular_Weight:             349.453
##########                DOCK_Rotatable_Bonds:                   5
##########                       Formal_Charge:              1.0002
##########                     HBond_Acceptors:                   4
##########                        HBond_Donors:                   3
##########                         Heavy_Atoms:                  26
##########                            HA_RMSDs:               8.248
##########                            HA_RMSDh:               4.723
##########                            HA_RMSDm:               4.129
##########                          Grid_Score:         -108.758507
##########                     Grid_vdw_energy:          -30.091681
##########                      Grid_es_energy:          -78.666824
##########           Internal_energy_repulsive:           12.799976

@<TRIPOS>MOLECULE
11N_1_2ZEC
 51 54 1 0 0
SMALL
USER_CHARGES


@<TRIPOS>ATOM
      1 C1         19.1814   76.5339   81.3858 C.ar    1  <0>        -0.0617
      2 C2         20.3402   77.3176   81.1646 C.ar    1  <0>        -0.0612
      3 C3         18.8676   76.0734   82.6967 C.ar    1  <0>        -0.0612
      4 C4         21.1914   77.6614   82.2453 C.ar    1  <0>        -0.0546
      5 C5         19.7251   76.4177   83.7826 C.ar    1  <0>        -0.0546
      6 C6         30.8626   75.8717   83.1295 C.ar    1  <0>        -0.0511
      7 C7         31.0239   77.2928   83.2455 C.ar    1  <0>        -0.0310
      8 C8         28.6013   76.0120   84.1872 C.ar    1  <0>        -0.0473
      9 C9         27.3198   77.8653   86.1809 C.3     1  <0>        -0.0252
     10 C10        26.7485   78.7105   83.8455 C.3     1  <0>        -0.0252
     11 C11        26.1362   78.6949   86.7167 C.3     1  <0>         0.0158
     12 C12        25.6023   79.5556   84.4138 C.3     1  <0>         0.0158
     13 C13        28.8291   79.6546   85.0828 C.3     1  <0>         0.0640
     14 C14        29.4370   73.7237   83.4816 C.3     1  <0>        -0.0094
     15 C15        21.7929   77.5481   84.7493 C.2     1  <0>        -0.0497
     16 C16        22.7587   78.4514   84.6845 C.2     1  <0>         0.0009
     17 C17        20.8743   77.2096   83.5638 C.ar    1  <0>        -0.0249
     18 C18        29.6355   75.2376   83.5916 C.ar    1  <0>        -0.0026
     19 C19        30.0030   78.0522   83.8347 C.ar    1  <0>         0.0800
     20 C20        28.7650   77.3891   84.3163 C.ar    1  <0>        -0.0085
     21 C21        23.8368   78.3271   85.7693 C.2     1  <0>         0.2394
     22 C22        27.8901   78.4932   84.8748 C.3     1  <0>         0.0249
     23 N1         28.9531   73.2552   84.7671 N.4     1  <0>         0.2218
     24 N2         25.1466   78.9759   85.6792 N.am    1  <0>        -0.2979
     25 O1         23.5415   77.7835   86.7817 O.2     1  <0>        -0.2706
     26 O2         29.8561   79.4888   84.0876 O.3     1  <0>        -0.3435
     27 H1         18.5339   76.2848   80.5582 H       1  <0>         0.0618
     28 H2         20.5769   77.6555   80.1665 H       1  <0>         0.0618
     29 H3         17.9886   75.4692   82.8665 H       1  <0>         0.0618
     30 H4         22.0734   78.2604   82.0733 H       1  <0>         0.0623
     31 H5         19.4944   76.0709   84.7791 H       1  <0>         0.0623
     32 H6         31.6514   75.2722   82.6995 H       1  <0>         0.0623
     33 H7         31.9213   77.7719   82.8830 H       1  <0>         0.0643
     34 H8         27.6968   75.5361   84.5362 H       1  <0>         0.0626
     35 H9         28.1132   77.8394   86.9423 H       1  <0>         0.0290
     36 H10        26.9732   76.8436   85.9659 H       1  <0>         0.0290
     37 H11        26.3476   77.7279   83.5561 H       1  <0>         0.0290
     38 H12        27.1631   79.2293   82.9685 H       1  <0>         0.0290
     39 H13        25.6475   78.1286   87.5233 H       1  <0>         0.0465
     40 H14        26.5229   79.6504   87.1007 H       1  <0>         0.0465
     41 H15        25.9559   80.5826   84.5879 H       1  <0>         0.0465
     42 H16        24.7683   79.5710   83.6967 H       1  <0>         0.0465
     43 H17        28.3051   80.6128   84.9517 H       1  <0>         0.0574
     44 H18        29.2567   79.6383   86.0961 H       1  <0>         0.0574
     45 H19        28.7047   73.4934   82.6938 H       1  <0>         0.0866
     46 H20        30.3898   73.2333   83.2333 H       1  <0>         0.0866
     47 H21        21.6429   77.0230   85.6811 H       1  <0>         0.0625
     48 H22        22.7857   79.2185   83.9247 H       1  <0>         0.0670
     49 H23        28.8122   72.2659   84.7304 H       1  <0>         0.1997
     50 H24        29.6263   73.4698   85.4749 H       1  <0>         0.1997
     51 H25        28.0875   73.7073   84.9822 H       1  <0>         0.1997
@<TRIPOS>BOND
     1     1     2   ar
     2     1     3   ar
     3     2     4   ar
     4     3     5   ar
     5     4    17   ar
     6     5    17   ar
     7     6     7   ar
     8     6    18   ar
     9     7    19   ar
    10     8    18   ar
    11     8    20   ar
    12     9    11    1
    13     9    22    1
    14    10    12    1
    15    10    22    1
    16    11    24    1
    17    12    24    1
    18    13    22    1
    19    13    26    1
    20    14    18    1
    21    14    23    1
    22    15    16    2
    23    15    17    1
    24    16    21    1
    25    19    20   ar
    26    19    26    1
    27    20    22    1
    28    21    24   am
    29    21    25    2
    30     1    27    1
    31     2    28    1
    32     3    29    1
    33     4    30    1
    34     5    31    1
    35     6    32    1
    36     7    33    1
    37     8    34    1
    38     9    35    1
    39     9    36    1
    40    10    37    1
    41    10    38    1
    42    11    39    1
    43    11    40    1
    44    12    41    1
    45    12    42    1
    46    13    43    1
    47    13    44    1
    48    14    45    1
    49    14    46    1
    50    15    47    1
    51    16    48    1
    52    23    49    1
    53    23    50    1
    54    23    51    1
@<TRIPOS>SUBSTRUCTURE
     1 <0>         1 TEMP              0 ****  ****    0 ROOT

