
##########                                Name:          11N_1_2ZEC
##########                    Molecular_Weight:             349.453
##########                DOCK_Rotatable_Bonds:                   5
##########                       Formal_Charge:              1.0002
##########                     HBond_Acceptors:                   4
##########                        HBond_Donors:                   3
##########                         Heavy_Atoms:                  26
##########                            HA_RMSDs:               0.312
##########                            HA_RMSDh:               0.312
##########                            HA_RMSDm:               0.312
##########                          Grid_Score:         -144.819168
##########                     Grid_vdw_energy:          -48.646179
##########                      Grid_es_energy:          -96.172989
##########           Internal_energy_repulsive:           12.039494

@<TRIPOS>MOLECULE
11N_1_2ZEC
 51 54 1 0 0
SMALL
USER_CHARGES


@<TRIPOS>ATOM
      1 C1         30.8846   71.5918   82.6808 C.ar    1  <0>        -0.0617
      2 C2         29.4995   71.8267   82.8596 C.ar    1  <0>        -0.0612
      3 C3         31.7949   72.6859   82.6212 C.ar    1  <0>        -0.0612
      4 C4         29.0070   73.1497   82.9929 C.ar    1  <0>        -0.0546
      5 C5         31.2988   74.0161   82.7533 C.ar    1  <0>        -0.0546
      6 C6         19.8314   77.6050   83.5856 C.ar    1  <0>        -0.0511
      7 C7         20.2159   78.2012   84.8328 C.ar    1  <0>        -0.0310
      8 C8         22.2216   77.5161   82.8569 C.ar    1  <0>        -0.0473
      9 C9         24.6655   79.1697   83.4441 C.3     1  <0>        -0.0252
     10 C10        24.6429   77.2023   85.0639 C.3     1  <0>        -0.0252
     11 C11        26.1686   79.3350   83.7437 C.3     1  <0>         0.0158
     12 C12        26.1298   77.4164   85.3706 C.3     1  <0>         0.0158
     13 C13        23.5769   79.4639   85.7710 C.3     1  <0>         0.0640
     14 C14        20.4656   76.6139   81.2648 C.3     1  <0>        -0.0094
     15 C15        29.4084   75.6951   83.0618 C.2     1  <0>        -0.0497
     16 C16        28.3307   76.0302   83.7541 C.2     1  <0>         0.0009
     17 C17        29.9186   74.2496   82.9437 C.ar    1  <0>        -0.0249
     18 C18        20.8472   77.2498   82.6040 C.ar    1  <0>        -0.0026
     19 C19        21.5714   78.4637   85.0774 C.ar    1  <0>         0.0800
     20 C20        22.5935   78.1115   84.0599 C.ar    1  <0>        -0.0085
     21 C21        27.7229   77.3911   83.3895 C.2     1  <0>         0.2394
     22 C22        23.9286   78.5173   84.6511 C.3     1  <0>         0.0249
     23 N1         20.7064   77.6032   80.2307 N.4     1  <0>         0.2218
     24 N2         26.7690   78.1007   84.2446 N.am    1  <0>        -0.2979
     25 O1         28.1465   77.9460   82.4302 O.2     1  <0>        -0.2706
     26 O2         22.2779   79.0408   86.2251 O.3     1  <0>        -0.3435
     27 H1         31.2518   70.5802   82.5895 H       1  <0>         0.0618
     28 H2         28.8140   70.9929   82.8946 H       1  <0>         0.0618
     29 H3         32.8506   72.5095   82.4772 H       1  <0>         0.0618
     30 H4         27.9503   73.3252   83.1306 H       1  <0>         0.0623
     31 H5         31.9827   74.8507   82.7075 H       1  <0>         0.0623
     32 H6         18.7886   77.4195   83.3747 H       1  <0>         0.0623
     33 H7         19.4699   78.4450   85.5745 H       1  <0>         0.0643
     34 H8         22.9703   77.2588   82.1223 H       1  <0>         0.0626
     35 H9         24.2278   80.1599   83.2496 H       1  <0>         0.0290
     36 H10        24.5449   78.5263   82.5600 H       1  <0>         0.0290
     37 H11        24.5572   76.4835   84.2356 H       1  <0>         0.0290
     38 H12        24.1535   76.8076   85.9666 H       1  <0>         0.0290
     39 H13        26.6819   79.6228   82.8145 H       1  <0>         0.0465
     40 H14        26.2902   80.1187   84.5060 H       1  <0>         0.0465
     41 H15        26.2319   78.0301   86.2778 H       1  <0>         0.0465
     42 H16        26.6148   76.4420   85.5300 H       1  <0>         0.0465
     43 H17        24.3163   79.4046   86.5833 H       1  <0>         0.0574
     44 H18        23.5494   80.5037   85.4132 H       1  <0>         0.0574
     45 H19        21.0771   75.7179   81.0824 H       1  <0>         0.0866
     46 H20        19.4048   76.3229   81.2718 H       1  <0>         0.0866
     47 H21        29.9561   76.4758   82.5550 H       1  <0>         0.0625
     48 H22        27.9107   75.3932   84.5185 H       1  <0>         0.0670
     49 H23        20.4665   77.2192   79.3391 H       1  <0>         0.1997
     50 H24        20.1457   78.4124   80.4067 H       1  <0>         0.1997
     51 H25        21.6728   77.8600   80.2338 H       1  <0>         0.1997
@<TRIPOS>BOND
     1     1     2   ar
     2     1     3   ar
     3     2     4   ar
     4     3     5   ar
     5     4    17   ar
     6     5    17   ar
     7     6     7   ar
     8     6    18   ar
     9     7    19   ar
    10     8    18   ar
    11     8    20   ar
    12     9    11    1
    13     9    22    1
    14    10    12    1
    15    10    22    1
    16    11    24    1
    17    12    24    1
    18    13    22    1
    19    13    26    1
    20    14    18    1
    21    14    23    1
    22    15    16    2
    23    15    17    1
    24    16    21    1
    25    19    20   ar
    26    19    26    1
    27    20    22    1
    28    21    24   am
    29    21    25    2
    30     1    27    1
    31     2    28    1
    32     3    29    1
    33     4    30    1
    34     5    31    1
    35     6    32    1
    36     7    33    1
    37     8    34    1
    38     9    35    1
    39     9    36    1
    40    10    37    1
    41    10    38    1
    42    11    39    1
    43    11    40    1
    44    12    41    1
    45    12    42    1
    46    13    43    1
    47    13    44    1
    48    14    45    1
    49    14    46    1
    50    15    47    1
    51    16    48    1
    52    23    49    1
    53    23    50    1
    54    23    51    1
@<TRIPOS>SUBSTRUCTURE
     1 <0>         1 TEMP              0 ****  ****    0 ROOT

