
##########                                Name:               *****
##########                    Molecular_Weight:             606.789
##########                DOCK_Rotatable_Bonds:                  13
##########                       Formal_Charge:        -2.64496e-07
##########                     HBond_Acceptors:                  11
##########                        HBond_Donors:                   0
##########                         Heavy_Atoms:                  43
##########                            HA_RMSDs:               0.529
##########                            HA_RMSDh:               0.529
##########                            HA_RMSDm:               0.529
##########                          Grid_Score:          -68.327454
##########                     Grid_vdw_energy:          -66.769272
##########                      Grid_es_energy:           -1.558179
##########           Internal_energy_repulsive:           62.849434

@<TRIPOS>MOLECULE
*****
 85 88 1 0 0
SMALL
USER_CHARGES


@<TRIPOS>ATOM
      1 C1         14.2234  -24.6398    2.8576 C.3     1  <0>        -0.0378
      2 C2         15.6987  -29.8198    8.9471 C.3     1  <0>        -0.0357
      3 C3         13.9821  -28.1016    8.6182 C.3     1  <0>        -0.0357
      4 C4         14.4487  -29.8245    6.8146 C.3     1  <0>        -0.0357
      5 C5         17.6083  -17.4084   -0.3794 C.3     1  <0>         0.0064
      6 C6         12.0666  -24.8443    5.9458 C.ar    1  <0>        -0.0614
      7 C7         12.2410  -23.5811    6.4924 C.ar    1  <0>        -0.0599
      8 C8         12.7248  -25.1695    4.7667 C.ar    1  <0>        -0.0570
      9 C9         13.0697  -22.6592    5.8623 C.ar    1  <0>        -0.0348
     10 C10        22.0870  -21.7972    0.2177 C.ar    1  <0>        -0.0426
     11 C11        21.9007  -23.2441    2.1372 C.ar    1  <0>        -0.0426
     12 C12        20.8769  -21.1981    0.5594 C.ar    1  <0>        -0.0394
     13 C13        20.6904  -22.6518    2.4762 C.ar    1  <0>        -0.0394
     14 C14        17.6346  -21.1191   -0.4563 C.2     1  <0>         0.0478
     15 C15        16.8794  -19.4336   -1.7059 C.2     1  <0>         0.0877
     16 C16        16.7337  -25.0988    5.3165 C.3     1  <0>        -0.0327
     17 C17        17.6257  -23.8974    7.3551 C.3     1  <0>        -0.0327
     18 C18        17.4641  -26.3624    5.7902 C.3     1  <0>         0.0171
     19 C19        18.2311  -25.2121    7.8076 C.3     1  <0>         0.0171
     20 C20        18.4019  -21.2303    3.3745 C.3     1  <0>         0.0297
     21 C21        17.2847  -22.2951    3.3480 C.3     1  <0>         0.0453
     22 C22        18.6816  -19.7646    1.3838 C.3     1  <0>         0.0520
     23 C23        16.4478  -22.6245    5.7391 C.3     1  <0>         0.0326
     24 C24        23.7134  -23.4026    0.7151 C.1     1  <0>         0.0992
     25 C25        13.5417  -24.2432    4.1317 C.ar    1  <0>        -0.0239
     26 C26        22.6021  -22.8197    1.0161 C.ar    1  <0>         0.0519
     27 C27        20.1842  -21.6066    1.7010 C.ar    1  <0>         0.0301
     28 C28        13.7431  -22.9816    4.6820 C.ar    1  <0>         0.1112
     29 C29        17.9327  -19.8836    0.0919 C.2     1  <0>         0.0469
     30 C30        17.3895  -23.8178    5.8532 C.3     1  <0>        -0.0211
     31 C31        16.6691  -27.0190    7.9569 C.2     1  <0>         0.3553
     32 C32        15.0229  -28.9372    7.9091 C.3     1  <0>         0.0721
     33 N1         24.6967  -23.9706    0.4514 N.1     1  <0>        -0.1909
     34 N2         16.9751  -20.7910   -1.5943 N.2     1  <0>        -0.2463
     35 N3         17.4832  -18.8648   -0.6485 N.pl3   1  <0>        -0.2951
     36 N4         17.3995  -26.2626    7.2479 N.am    1  <0>        -0.2776
     37 N5         18.9329  -21.0294    2.0083 N.pl3   1  <0>        -0.3227
     38 N6         16.2967  -21.9706    4.4250 N.pl3   1  <0>        -0.2323
     39 O1         16.5725  -26.9525    9.1802 O.2     1  <0>        -0.2411
     40 O2         14.3046  -20.5501    4.5911 O.2     1  <0>        -0.1501
     41 O3         14.5386  -21.8347    2.5325 O.2     1  <0>        -0.1501
     42 O4         15.9272  -28.0391    7.2734 O.3     1  <0>        -0.2939
     43 S1         14.7074  -21.8598    4.0128 S.o2    1  <0>         0.0709
     44 H1         13.5822  -24.3818    2.0022 H       1  <0>         0.0278
     45 H2         15.1803  -24.1044    2.7724 H       1  <0>         0.0278
     46 H3         14.4084  -25.7242    2.8628 H       1  <0>         0.0278
     47 H4         16.4636  -30.4410    8.4582 H       1  <0>         0.0257
     48 H5         16.1735  -29.1883    9.7121 H       1  <0>         0.0257
     49 H6         14.9473  -30.4686    9.4214 H       1  <0>         0.0257
     50 H7         13.4752  -27.4514    7.8901 H       1  <0>         0.0257
     51 H8         13.2436  -28.7630    9.0946 H       1  <0>         0.0257
     52 H9         14.4698  -27.4828    9.3853 H       1  <0>         0.0257
     53 H10        13.9559  -29.1988    6.0560 H       1  <0>         0.0257
     54 H11        15.2603  -30.3990    6.3454 H       1  <0>         0.0257
     55 H12        13.7146  -30.5172    7.2515 H       1  <0>         0.0257
     56 H13        18.1542  -17.2543    0.5630 H       1  <0>         0.0432
     57 H14        18.1579  -16.9296   -1.2035 H       1  <0>         0.0432
     58 H15        16.6061  -16.9635   -0.2990 H       1  <0>         0.0432
     59 H16        11.4264  -25.5666    6.4312 H       1  <0>         0.0618
     60 H17        11.7334  -23.3142    7.4073 H       1  <0>         0.0618
     61 H18        12.5998  -26.1539    4.3386 H       1  <0>         0.0621
     62 H19        13.1945  -21.6765    6.2927 H       1  <0>         0.0637
     63 H20        22.6238  -21.4716   -0.6605 H       1  <0>         0.0631
     64 H21        22.2989  -24.0399    2.7492 H       1  <0>         0.0631
     65 H22        20.4723  -20.4132   -0.0626 H       1  <0>         0.0636
     66 H23        20.1418  -22.9996    3.3385 H       1  <0>         0.0636
     67 H24        17.8690  -22.1013   -0.0730 H       1  <0>         0.0846
     68 H25        16.3968  -18.9032   -2.5134 H       1  <0>         0.1002
     69 H26        16.7567  -25.0712    4.2168 H       1  <0>         0.0284
     70 H27        15.6951  -25.1387    5.6760 H       1  <0>         0.0284
     71 H28        16.6560  -23.7760    7.8599 H       1  <0>         0.0284
     72 H29        18.3170  -23.0884    7.6355 H       1  <0>         0.0284
     73 H30        16.9714  -27.2759    5.4250 H       1  <0>         0.0465
     74 H31        18.5036  -26.3869    5.4319 H       1  <0>         0.0465
     75 H32        19.2656  -25.3054    7.4437 H       1  <0>         0.0465
     76 H33        18.2420  -25.2738    8.9057 H       1  <0>         0.0465
     77 H34        17.9924  -20.2810    3.7500 H       1  <0>         0.0480
     78 H35        19.2132  -21.5689    4.0352 H       1  <0>         0.0480
     79 H36        16.7846  -22.2867    2.3686 H       1  <0>         0.0493
     80 H37        17.7149  -23.2916    3.5240 H       1  <0>         0.0493
     81 H38        19.6488  -19.2832    1.1783 H       1  <0>         0.0526
     82 H39        18.0822  -19.1525    2.0737 H       1  <0>         0.0526
     83 H40        15.4492  -22.9844    6.0271 H       1  <0>         0.0481
     84 H41        16.8283  -21.8574    6.4295 H       1  <0>         0.0481
     85 H42        18.3155  -23.7099    5.2682 H       1  <0>         0.0317
@<TRIPOS>BOND
     1    15    68    1
     2    15    34    2
     3    15    35    1
     4     5    57    1
     5    14    34    1
     6     5    35    1
     7    29    35    1
     8     5    58    1
     9     5    56    1
    10    10    63    1
    11    14    29    2
    12    14    67    1
    13    12    65    1
    14    22    29    1
    15    10    12   ar
    16    10    26   ar
    17    12    27   ar
    18    24    33    3
    19    22    81    1
    20    24    26    1
    21    22    82    1
    22    22    37    1
    23    11    26   ar
    24    27    37    1
    25    13    27   ar
    26    20    37    1
    27     1    44    1
    28    11    13   ar
    29    11    64    1
    30    21    79    1
    31    13    66    1
    32     1    46    1
    33     1    45    1
    34     1    25    1
    35    41    43    2
    36    20    21    1
    37    20    77    1
    38    20    78    1
    39    21    80    1
    40    21    38    1
    41    16    69    1
    42     8    25   ar
    43    25    28   ar
    44     8    61    1
    45    38    43    1
    46    28    43    1
    47    40    43    2
    48    23    38    1
    49    30    85    1
    50    18    74    1
    51     6     8   ar
    52     9    28   ar
    53    18    73    1
    54    16    18    1
    55    16    30    1
    56    16    70    1
    57    18    36    1
    58    23    30    1
    59    17    30    1
    60    23    83    1
    61    23    84    1
    62     6    59    1
    63     6     7   ar
    64     7     9   ar
    65     9    62    1
    66     4    54    1
    67    19    75    1
    68     4    53    1
    69    19    36    1
    70    31    36   am
    71     7    60    1
    72    17    72    1
    73    17    19    1
    74    17    71    1
    75     4    55    1
    76     4    32    1
    77    19    76    1
    78    31    42    1
    79    32    42    1
    80    31    39    2
    81     2    32    1
    82     3    32    1
    83     2    47    1
    84     3    50    1
    85     2    48    1
    86     2    49    1
    87     3    52    1
    88     3    51    1
@<TRIPOS>SUBSTRUCTURE
     1 <0>         1 TEMP              0 ****  ****    0 ROOT

