
##########                                Name:               *****
##########                    Molecular_Weight:             606.789
##########                DOCK_Rotatable_Bonds:                  13
##########                       Formal_Charge:        -2.64496e-07
##########                     HBond_Acceptors:                  11
##########                        HBond_Donors:                   0
##########                         Heavy_Atoms:                  43
##########                            HA_RMSDs:               0.734
##########                            HA_RMSDh:               0.734
##########                            HA_RMSDm:               0.733
##########                          Grid_Score:          -68.196014
##########                     Grid_vdw_energy:          -66.448830
##########                      Grid_es_energy:           -1.747189
##########           Internal_energy_repulsive:           66.880867

@<TRIPOS>MOLECULE
*****
 85 88 1 0 0
SMALL
USER_CHARGES


@<TRIPOS>ATOM
      1 C1         14.4500  -24.6485    2.7839 C.3     1  <0>        -0.0378
      2 C2         15.5187  -29.8973    8.8710 C.3     1  <0>        -0.0357
      3 C3         13.8500  -28.1129    8.6752 C.3     1  <0>        -0.0357
      4 C4         14.2873  -29.6921    6.7376 C.3     1  <0>        -0.0357
      5 C5         17.4953  -17.3045   -0.1411 C.3     1  <0>         0.0064
      6 C6         12.4568  -25.3708    5.9043 C.ar    1  <0>        -0.0614
      7 C7         12.5652  -24.1692    6.5893 C.ar    1  <0>        -0.0599
      8 C8         13.0820  -25.5070    4.6714 C.ar    1  <0>        -0.0570
      9 C9         13.2962  -23.1204    6.0422 C.ar    1  <0>        -0.0348
     10 C10        22.0660  -21.3755    0.3377 C.ar    1  <0>        -0.0426
     11 C11        21.9665  -23.0006    2.1158 C.ar    1  <0>        -0.0426
     12 C12        20.8395  -20.8593    0.7491 C.ar    1  <0>        -0.0394
     13 C13        20.7401  -22.4909    2.5238 C.ar    1  <0>        -0.0394
     14 C14        17.4366  -21.0156   -0.1265 C.2     1  <0>         0.0478
     15 C15        16.6854  -19.3439   -1.3971 C.2     1  <0>         0.0877
     16 C16        16.8204  -25.0222    5.5394 C.3     1  <0>        -0.0327
     17 C17        17.5910  -23.8962    7.6685 C.3     1  <0>        -0.0327
     18 C18        17.4855  -26.3155    6.0292 C.3     1  <0>         0.0171
     19 C19        18.1317  -25.2367    8.1268 C.3     1  <0>         0.0171
     20 C20        18.4569  -21.1660    3.6138 C.3     1  <0>         0.0297
     21 C21        17.3914  -22.2828    3.6069 C.3     1  <0>         0.0453
     22 C22        18.5632  -19.6413    1.6508 C.3     1  <0>         0.0520
     23 C23        16.5621  -22.5533    6.0079 C.3     1  <0>         0.0326
     24 C24        23.7607  -22.9543    0.6625 C.1     1  <0>         0.0992
     25 C25        13.8006  -24.4542    4.1204 C.ar    1  <0>        -0.0239
     26 C26        22.6329  -22.4464    1.0306 C.ar    1  <0>         0.0519
     27 C27        20.1816  -21.3992    1.8560 C.ar    1  <0>         0.0301
     28 C28        13.9362  -23.2526    4.8079 C.ar    1  <0>         0.1112
     29 C29        17.7771  -19.7743    0.3827 C.2     1  <0>         0.0469
     30 C30        17.4653  -23.7723    6.1563 C.3     1  <0>        -0.0211
     31 C31        16.5216  -27.0072    8.1149 C.2     1  <0>         0.3553
     32 C32        14.8749  -28.9142    7.9057 C.3     1  <0>         0.0721
     33 N1         24.7607  -23.4558    0.3346 N.1     1  <0>        -0.1909
     34 N2         16.7538  -20.7001   -1.2543 N.2     1  <0>        -0.2463
     35 N3         17.3304  -18.7637   -0.3705 N.pl3   1  <0>        -0.2951
     36 N4         17.3184  -26.2515    7.4808 N.am    1  <0>        -0.2776
     37 N5         18.9142  -20.9032    2.2315 N.pl3   1  <0>        -0.3227
     38 N6         16.3765  -21.9745    4.6633 N.pl3   1  <0>        -0.2323
     39 O1         16.3388  -26.9698    9.3296 O.2     1  <0>        -0.2411
     40 O2         14.2508  -20.7776    4.9136 O.2     1  <0>        -0.1501
     41 O3         14.6233  -21.8664    2.7646 O.2     1  <0>        -0.1501
     42 O4         15.8075  -27.9907    7.3526 O.3     1  <0>        -0.2939
     43 S1         14.7862  -21.9909    4.2406 S.o2    1  <0>         0.0709
     44 H1         13.7535  -24.3435    1.9894 H       1  <0>         0.0278
     45 H2         15.3612  -24.0353    2.7272 H       1  <0>         0.0278
     46 H3         14.7121  -25.7089    2.6543 H       1  <0>         0.0278
     47 H4         16.2715  -30.4959    8.3370 H       1  <0>         0.0257
     48 H5         16.0031  -29.3442    9.6888 H       1  <0>         0.0257
     49 H6         14.7468  -30.5631    9.2849 H       1  <0>         0.0257
     50 H7         13.3662  -27.3915    8.0004 H       1  <0>         0.0257
     51 H8         13.0906  -28.7918    9.0902 H       1  <0>         0.0257
     52 H9         14.3469  -27.5730    9.4941 H       1  <0>         0.0257
     53 H10        13.8174  -28.9928    6.0305 H       1  <0>         0.0257
     54 H11        15.0878  -30.2471    6.2275 H       1  <0>         0.0257
     55 H12        13.5319  -30.3989    7.1107 H       1  <0>         0.0257
     56 H13        18.0699  -17.1401    0.7823 H       1  <0>         0.0432
     57 H14        18.0328  -16.8585   -0.9912 H       1  <0>         0.0432
     58 H15        16.5058  -16.8348   -0.0451 H       1  <0>         0.0432
     59 H16        11.8928  -26.1908    6.3244 H       1  <0>         0.0618
     60 H17        12.0822  -24.0488    7.5475 H       1  <0>         0.0618
     61 H18        13.0082  -26.4423    4.1350 H       1  <0>         0.0621
     62 H19        13.3700  -22.1870    6.5807 H       1  <0>         0.0637
     63 H20        22.5757  -20.9487   -0.5130 H       1  <0>         0.0631
     64 H21        22.4048  -23.8334    2.6458 H       1  <0>         0.0631
     65 H22        20.3951  -20.0367    0.2082 H       1  <0>         0.0636
     66 H23        20.2192  -22.9389    3.3566 H       1  <0>         0.0636
     67 H24        17.6594  -21.9933    0.2747 H       1  <0>         0.0846
     68 H25        16.1931  -18.8223   -2.2043 H       1  <0>         0.1002
     69 H26        16.9232  -24.9671    4.4453 H       1  <0>         0.0284
     70 H27        15.7580  -25.0454    5.8226 H       1  <0>         0.0284
     71 H28        16.5905  -23.7635    8.1059 H       1  <0>         0.0284
     72 H29        18.2788  -23.1121    8.0194 H       1  <0>         0.0284
     73 H30        16.9994  -27.2067    5.6050 H       1  <0>         0.0465
     74 H31        18.5472  -26.3568    5.7454 H       1  <0>         0.0465
     75 H32        19.1873  -25.3465    7.8353 H       1  <0>         0.0465
     76 H33        18.0621  -25.3268    9.2208 H       1  <0>         0.0465
     77 H34        18.0206  -20.2480    4.0345 H       1  <0>         0.0480
     78 H35        19.3130  -21.4821    4.2276 H       1  <0>         0.0480
     79 H36        16.9032  -22.3263    2.6224 H       1  <0>         0.0493
     80 H37        17.8658  -23.2523    3.8165 H       1  <0>         0.0493
     81 H38        19.4910  -19.0955    1.4254 H       1  <0>         0.0526
     82 H39        17.9526  -19.0853    2.3774 H       1  <0>         0.0526
     83 H40        15.5651  -22.8571    6.3591 H       1  <0>         0.0481
     84 H41        16.9993  -21.7609    6.6331 H       1  <0>         0.0481
     85 H42        18.4332  -23.6726    5.6419 H       1  <0>         0.0317
@<TRIPOS>BOND
     1    15    68    1
     2    15    34    2
     3    15    35    1
     4     5    57    1
     5    14    34    1
     6     5    35    1
     7    29    35    1
     8     5    58    1
     9     5    56    1
    10    10    63    1
    11    14    29    2
    12    14    67    1
    13    12    65    1
    14    22    29    1
    15    10    12   ar
    16    10    26   ar
    17    12    27   ar
    18    24    33    3
    19    22    81    1
    20    24    26    1
    21    22    82    1
    22    22    37    1
    23    11    26   ar
    24    27    37    1
    25    13    27   ar
    26    20    37    1
    27     1    44    1
    28    11    13   ar
    29    11    64    1
    30    21    79    1
    31    13    66    1
    32     1    46    1
    33     1    45    1
    34     1    25    1
    35    41    43    2
    36    20    21    1
    37    20    77    1
    38    20    78    1
    39    21    80    1
    40    21    38    1
    41    16    69    1
    42     8    25   ar
    43    25    28   ar
    44     8    61    1
    45    38    43    1
    46    28    43    1
    47    40    43    2
    48    23    38    1
    49    30    85    1
    50    18    74    1
    51     6     8   ar
    52     9    28   ar
    53    18    73    1
    54    16    18    1
    55    16    30    1
    56    16    70    1
    57    18    36    1
    58    23    30    1
    59    17    30    1
    60    23    83    1
    61    23    84    1
    62     6    59    1
    63     6     7   ar
    64     7     9   ar
    65     9    62    1
    66     4    54    1
    67    19    75    1
    68     4    53    1
    69    19    36    1
    70    31    36   am
    71     7    60    1
    72    17    72    1
    73    17    19    1
    74    17    71    1
    75     4    55    1
    76     4    32    1
    77    19    76    1
    78    31    42    1
    79    32    42    1
    80    31    39    2
    81     2    32    1
    82     3    32    1
    83     2    47    1
    84     3    50    1
    85     2    48    1
    86     2    49    1
    87     3    52    1
    88     3    51    1
@<TRIPOS>SUBSTRUCTURE
     1 <0>         1 TEMP              0 ****  ****    0 ROOT

