
##########                                Name:               *****
##########                    Molecular_Weight:             606.789
##########                DOCK_Rotatable_Bonds:                  13
##########                       Formal_Charge:        -2.64496e-07
##########                     HBond_Acceptors:                  11
##########                        HBond_Donors:                   0
##########                         Heavy_Atoms:                  43
##########                            HA_RMSDs:               0.456
##########                            HA_RMSDh:               0.456
##########                            HA_RMSDm:               0.456
##########                          Grid_Score:          -64.965393
##########                     Grid_vdw_energy:          -63.583340
##########                      Grid_es_energy:           -1.382050
##########           Internal_energy_repulsive:           61.546040

@<TRIPOS>MOLECULE
*****
 85 88 1 0 0
SMALL
USER_CHARGES


@<TRIPOS>ATOM
      1 C1         14.0435  -24.3469    2.5781 C.3     1  <0>        -0.0378
      2 C2         15.3979  -30.0227    8.6900 C.3     1  <0>        -0.0357
      3 C3         13.8004  -28.1842    8.4167 C.3     1  <0>        -0.0357
      4 C4         14.0548  -29.9540    6.6161 C.3     1  <0>        -0.0357
      5 C5         17.4428  -17.3550   -0.5142 C.3     1  <0>         0.0064
      6 C6         12.2178  -25.4054    5.7050 C.ar    1  <0>        -0.0614
      7 C7         12.4198  -24.3092    6.5311 C.ar    1  <0>        -0.0599
      8 C8         12.7591  -25.3993    4.4259 C.ar    1  <0>        -0.0570
      9 C9         13.1599  -23.2232    6.0766 C.ar    1  <0>        -0.0348
     10 C10        21.7708  -21.5871    0.1061 C.ar    1  <0>        -0.0426
     11 C11        21.6264  -23.1405    1.9442 C.ar    1  <0>        -0.0426
     12 C12        20.5617  -21.0184    0.4996 C.ar    1  <0>        -0.0394
     13 C13        20.4172  -22.5784    2.3347 C.ar    1  <0>        -0.0394
     14 C14        17.1994  -21.0567   -0.3958 C.2     1  <0>         0.0478
     15 C15        16.5722  -19.3893   -1.7373 C.2     1  <0>         0.0877
     16 C16        16.4848  -25.2539    5.1621 C.3     1  <0>        -0.0327
     17 C17        17.7540  -24.3143    7.1373 C.3     1  <0>        -0.0327
     18 C18        17.1518  -26.6099    5.4289 C.3     1  <0>         0.0171
     19 C19        18.2900  -25.7088    7.3971 C.3     1  <0>         0.0171
     20 C20        18.1673  -21.1653    3.3706 C.3     1  <0>         0.0297
     21 C21        17.0809  -22.2618    3.3841 C.3     1  <0>         0.0453
     22 C22        18.3369  -19.6861    1.3774 C.3     1  <0>         0.0520
     23 C23        16.4911  -22.8116    5.8082 C.3     1  <0>         0.0326
     24 C24        23.4172  -23.2039    0.4874 C.1     1  <0>         0.0992
     25 C25        13.4869  -24.3083    3.9689 C.ar    1  <0>        -0.0239
     26 C26        22.3065  -22.6481    0.8378 C.ar    1  <0>         0.0519
     27 C27        19.8906  -21.4959    1.6271 C.ar    1  <0>         0.0301
     28 C28        13.7162  -23.2133    4.7956 C.ar    1  <0>         0.1112
     29 C29        17.5851  -19.8187    0.0887 C.2     1  <0>         0.0469
     30 C30        17.3241  -24.0833    5.6952 C.3     1  <0>        -0.0211
     31 C31        16.6011  -27.3881    7.6309 C.2     1  <0>         0.3553
     32 C32        14.7428  -29.1019    7.6723 C.3     1  <0>         0.0721
     33 N1         24.4005  -23.7478    0.1770 N.1     1  <0>        -0.1909
     34 N2         16.5687  -20.7423   -1.5538 N.2     1  <0>        -0.2463
     35 N3         17.2129  -18.8106   -0.7072 N.pl3   1  <0>        -0.2951
     36 N4         17.2956  -26.6343    6.8841 N.am    1  <0>        -0.2776
     37 N5         18.6400  -20.9475    1.9857 N.pl3   1  <0>        -0.3227
     38 N6         16.2060  -22.0457    4.5795 N.pl3   1  <0>        -0.2323
     39 O1         16.6784  -27.4223    8.8569 O.2     1  <0>        -0.2411
     40 O2         14.1995  -20.8061    5.2511 O.2     1  <0>        -0.1501
     41 O3         14.2768  -21.5476    2.9302 O.2     1  <0>        -0.1501
     42 O4         15.6812  -28.2798    6.9852 O.3     1  <0>        -0.2939
     43 S1         14.5828  -21.9179    4.3407 S.o2    1  <0>         0.0709
     44 H1         13.3130  -23.9159    1.8781 H       1  <0>         0.0278
     45 H2         14.9749  -23.7633    2.5404 H       1  <0>         0.0278
     46 H3         14.2513  -25.3893    2.2951 H       1  <0>         0.0278
     47 H4         16.0914  -30.7039    8.1752 H       1  <0>         0.0257
     48 H5         15.9528  -29.4213    9.4247 H       1  <0>         0.0257
     49 H6         14.6230  -30.6091    9.2058 H       1  <0>         0.0257
     50 H7         13.3103  -27.5048    7.7038 H       1  <0>         0.0257
     51 H8         13.0374  -28.7841    8.9342 H       1  <0>         0.0257
     52 H9         14.3672  -27.5963    9.1531 H       1  <0>         0.0257
     53 H10        13.5757  -29.3003    5.8724 H       1  <0>         0.0257
     54 H11        14.7993  -30.5919    6.1183 H       1  <0>         0.0257
     55 H12        13.2921  -30.5857    7.0943 H       1  <0>         0.0257
     56 H13        17.9958  -17.1911    0.4224 H       1  <0>         0.0432
     57 H14        18.0281  -16.9615   -1.3587 H       1  <0>         0.0432
     58 H15        16.4754  -16.8350   -0.4640 H       1  <0>         0.0432
     59 H16        11.6462  -26.2538    6.0523 H       1  <0>         0.0618
     60 H17        12.0025  -24.2996    7.5269 H       1  <0>         0.0618
     61 H18        12.6123  -26.2525    3.7791 H       1  <0>         0.0621
     62 H19        13.3069  -22.3721    6.7252 H       1  <0>         0.0637
     63 H20        22.2910  -21.2084   -0.7609 H       1  <0>         0.0631
     64 H21        22.0404  -23.9658    2.5045 H       1  <0>         0.0631
     65 H22        20.1413  -20.2035   -0.0712 H       1  <0>         0.0636
     66 H23        19.8851  -22.9785    3.1845 H       1  <0>         0.0636
     67 H24        17.3607  -22.0316    0.0401 H       1  <0>         0.0846
     68 H25        16.1318  -18.8688   -2.5747 H       1  <0>         0.1002
     69 H26        16.3605  -25.1313    4.0758 H       1  <0>         0.0284
     70 H27        15.5056  -25.2404    5.6626 H       1  <0>         0.0284
     71 H28        16.8775  -24.1591    7.7836 H       1  <0>         0.0284
     72 H29        18.5494  -23.5924    7.3764 H       1  <0>         0.0284
     73 H30        16.5309  -27.4442    5.0697 H       1  <0>         0.0465
     74 H31        18.1260  -26.6876    4.9245 H       1  <0>         0.0465
     75 H32        19.2521  -25.8538    6.8827 H       1  <0>         0.0465
     76 H33        18.4443  -25.8679    8.4744 H       1  <0>         0.0465
     77 H34        17.7452  -20.2286    3.7635 H       1  <0>         0.0480
     78 H35        19.0125  -21.4811    3.9993 H       1  <0>         0.0480
     79 H36        16.4789  -22.2016    2.4659 H       1  <0>         0.0493
     80 H37        17.5526  -23.2535    3.4410 H       1  <0>         0.0493
     81 H38        19.2840  -19.1661    1.1719 H       1  <0>         0.0526
     82 H39        17.7192  -19.1052    2.0780 H       1  <0>         0.0526
     83 H40        15.5180  -23.1102    6.2247 H       1  <0>         0.0481
     84 H41        17.0407  -22.1352    6.4793 H       1  <0>         0.0481
     85 H42        18.1679  -24.0001    4.9934 H       1  <0>         0.0317
@<TRIPOS>BOND
     1    15    68    1
     2    15    34    2
     3    15    35    1
     4     5    57    1
     5    14    34    1
     6     5    35    1
     7    29    35    1
     8     5    58    1
     9     5    56    1
    10    10    63    1
    11    14    29    2
    12    14    67    1
    13    12    65    1
    14    22    29    1
    15    10    12   ar
    16    10    26   ar
    17    12    27   ar
    18    24    33    3
    19    22    81    1
    20    24    26    1
    21    22    82    1
    22    22    37    1
    23    11    26   ar
    24    27    37    1
    25    13    27   ar
    26    20    37    1
    27     1    44    1
    28    11    13   ar
    29    11    64    1
    30    21    79    1
    31    13    66    1
    32     1    46    1
    33     1    45    1
    34     1    25    1
    35    41    43    2
    36    20    21    1
    37    20    77    1
    38    20    78    1
    39    21    80    1
    40    21    38    1
    41    16    69    1
    42     8    25   ar
    43    25    28   ar
    44     8    61    1
    45    38    43    1
    46    28    43    1
    47    40    43    2
    48    23    38    1
    49    30    85    1
    50    18    74    1
    51     6     8   ar
    52     9    28   ar
    53    18    73    1
    54    16    18    1
    55    16    30    1
    56    16    70    1
    57    18    36    1
    58    23    30    1
    59    17    30    1
    60    23    83    1
    61    23    84    1
    62     6    59    1
    63     6     7   ar
    64     7     9   ar
    65     9    62    1
    66     4    54    1
    67    19    75    1
    68     4    53    1
    69    19    36    1
    70    31    36   am
    71     7    60    1
    72    17    72    1
    73    17    19    1
    74    17    71    1
    75     4    55    1
    76     4    32    1
    77    19    76    1
    78    31    42    1
    79    32    42    1
    80    31    39    2
    81     2    32    1
    82     3    32    1
    83     2    47    1
    84     3    50    1
    85     2    48    1
    86     2    49    1
    87     3    52    1
    88     3    51    1
@<TRIPOS>SUBSTRUCTURE
     1 <0>         1 TEMP              0 ****  ****    0 ROOT

