
##########                                Name:               *****
##########                    Molecular_Weight:             606.789
##########                DOCK_Rotatable_Bonds:                  13
##########                       Formal_Charge:        -2.64496e-07
##########                     HBond_Acceptors:                  11
##########                        HBond_Donors:                   0
##########                         Heavy_Atoms:                  43
##########                            HA_RMSDs:               0.638
##########                            HA_RMSDh:               0.638
##########                            HA_RMSDm:               0.625
##########                          Grid_Score:          -68.097122
##########                     Grid_vdw_energy:          -66.867477
##########                      Grid_es_energy:           -1.229647
##########           Internal_energy_repulsive:           61.075584

@<TRIPOS>MOLECULE
*****
 85 88 1 0 0
SMALL
USER_CHARGES


@<TRIPOS>ATOM
      1 C1         13.7676  -24.4219    2.6828 C.3     1  <0>        -0.0378
      2 C2         15.4587  -30.0195    8.6695 C.3     1  <0>        -0.0357
      3 C3         13.8220  -28.2085    8.4503 C.3     1  <0>        -0.0357
      4 C4         14.0762  -29.9494    6.6217 C.3     1  <0>        -0.0357
      5 C5         17.2186  -17.6365   -0.6692 C.3     1  <0>         0.0064
      6 C6         12.1599  -25.7379    5.8316 C.ar    1  <0>        -0.0614
      7 C7         12.2915  -24.6533    6.6867 C.ar    1  <0>        -0.0599
      8 C8         12.6518  -25.6433    4.5361 C.ar    1  <0>        -0.0570
      9 C9         12.9130  -23.4906    6.2444 C.ar    1  <0>        -0.0348
     10 C10        21.6454  -21.9585    0.6423 C.ar    1  <0>        -0.0426
     11 C11        21.3373  -23.1688    2.7045 C.ar    1  <0>        -0.0426
     12 C12        20.4128  -21.3375    0.8296 C.ar    1  <0>        -0.0394
     13 C13        20.1047  -22.5549    2.8900 C.ar    1  <0>        -0.0394
     14 C14        17.3211  -21.3398   -0.4443 C.2     1  <0>         0.0478
     15 C15        16.6470  -19.7777   -1.8860 C.2     1  <0>         0.0877
     16 C16        16.2916  -25.1607    5.1922 C.3     1  <0>        -0.0327
     17 C17        17.5596  -24.1907    7.1533 C.3     1  <0>        -0.0327
     18 C18        17.0292  -26.4867    5.4218 C.3     1  <0>         0.0171
     19 C19        18.1681  -25.5614    7.3783 C.3     1  <0>         0.0171
     20 C20        17.7361  -21.1029    3.4483 C.3     1  <0>         0.0297
     21 C21        16.6125  -22.1610    3.4226 C.3     1  <0>         0.0453
     22 C22        18.1769  -19.8183    1.3639 C.3     1  <0>         0.0520
     23 C23        16.1952  -22.7311    5.8776 C.3     1  <0>         0.0326
     24 C24        23.2415  -23.4737    1.4341 C.1     1  <0>         0.0992
     25 C25        13.2605  -24.4768    4.0919 C.ar    1  <0>        -0.0239
     26 C26        22.1103  -22.8724    1.5894 C.ar    1  <0>         0.0519
     27 C27        19.6471  -21.6156    1.9637 C.ar    1  <0>         0.0301
     28 C28        13.4193  -23.3909    4.9467 C.ar    1  <0>         0.1112
     29 C29        17.5467  -20.0577    0.0262 C.2     1  <0>         0.0469
     30 C30        17.0857  -23.9590    5.7252 C.3     1  <0>        -0.0211
     31 C31        16.5679  -27.3240    7.6226 C.2     1  <0>         0.3553
     32 C32        14.7676  -29.0982    7.6765 C.3     1  <0>         0.0721
     33 N1         24.2425  -24.0571    1.3054 N.1     1  <0>        -0.1909
     34 N2         16.7580  -21.1192   -1.6575 N.2     1  <0>        -0.2463
     35 N3         17.1449  -19.1122   -0.8298 N.pl3   1  <0>        -0.2951
     36 N4         17.2077  -26.5262    6.8728 N.am    1  <0>        -0.2776
     37 N5         18.3758  -21.0210    2.1167 N.pl3   1  <0>        -0.3227
     38 N6         15.7861  -22.0032    4.6609 N.pl3   1  <0>        -0.2323
     39 O1         16.6753  -27.3730    8.8459 O.2     1  <0>        -0.2411
     40 O2         13.7191  -20.9703    5.4820 O.2     1  <0>        -0.1501
     41 O3         13.7383  -21.6112    3.1302 O.2     1  <0>        -0.1501
     42 O4         15.6773  -28.2495    6.9834 O.3     1  <0>        -0.2939
     43 S1         14.1478  -22.0081    4.5068 S.o2    1  <0>         0.0709
     44 H1         12.9761  -24.0388    2.0224 H       1  <0>         0.0278
     45 H2         14.6402  -23.7544    2.6337 H       1  <0>         0.0278
     46 H3         14.0587  -25.4317    2.3583 H       1  <0>         0.0278
     47 H4         16.1553  -30.6806    8.1330 H       1  <0>         0.0257
     48 H5         16.0158  -29.4173    9.4020 H       1  <0>         0.0257
     49 H6         14.7047  -30.6273    9.1916 H       1  <0>         0.0257
     50 H7         13.3060  -27.5293    7.7558 H       1  <0>         0.0257
     51 H8         13.0802  -28.8296    8.9736 H       1  <0>         0.0257
     52 H9         14.3913  -27.6196    9.1840 H       1  <0>         0.0257
     53 H10        13.5711  -29.2954    5.8958 H       1  <0>         0.0257
     54 H11        14.8232  -30.5665    6.1018 H       1  <0>         0.0257
     55 H12        13.3346  -30.6018    7.1054 H       1  <0>         0.0257
     56 H13        17.6766  -17.3947    0.3012 H       1  <0>         0.0432
     57 H14        17.8293  -17.2099   -1.4788 H       1  <0>         0.0432
     58 H15        16.2050  -17.2125   -0.7114 H       1  <0>         0.0432
     59 H16        11.6806  -26.6453    6.1691 H       1  <0>         0.0618
     60 H17        11.9114  -24.7123    7.6956 H       1  <0>         0.0618
     61 H18        12.5597  -26.4864    3.8664 H       1  <0>         0.0621
     62 H19        13.0055  -22.6496    6.9160 H       1  <0>         0.0637
     63 H20        22.2384  -21.7333   -0.2313 H       1  <0>         0.0631
     64 H21        21.6969  -23.8813    3.4322 H       1  <0>         0.0631
     65 H22        20.0475  -20.6372    0.0929 H       1  <0>         0.0636
     66 H23        19.5011  -22.8043    3.7496 H       1  <0>         0.0636
     67 H24        17.5393  -22.2824    0.0356 H       1  <0>         0.0846
     68 H25        16.2273  -19.3250   -2.7721 H       1  <0>         0.1002
     69 H26        16.1363  -25.0278    4.1111 H       1  <0>         0.0284
     70 H27        15.3248  -25.2024    5.7147 H       1  <0>         0.0284
     71 H28        16.6919  -24.0881    7.8216 H       1  <0>         0.0284
     72 H29        18.3246  -23.4347    7.3862 H       1  <0>         0.0284
     73 H30        16.4410  -27.3446    5.0631 H       1  <0>         0.0465
     74 H31        17.9940  -26.5093    4.8945 H       1  <0>         0.0465
     75 H32        19.1238  -25.6517    6.8401 H       1  <0>         0.0465
     76 H33        18.3549  -25.7291    8.4491 H       1  <0>         0.0465
     77 H34        17.3089  -20.1233    3.7087 H       1  <0>         0.0480
     78 H35        18.4887  -21.3879    4.1978 H       1  <0>         0.0480
     79 H36        15.9827  -22.0146    2.5331 H       1  <0>         0.0493
     80 H37        17.0502  -23.1692    3.3918 H       1  <0>         0.0493
     81 H38        19.1571  -19.3460    1.2034 H       1  <0>         0.0526
     82 H39        17.5163  -19.1552    1.9416 H       1  <0>         0.0526
     83 H40        15.2703  -23.0730    6.3645 H       1  <0>         0.0481
     84 H41        16.7522  -22.0149    6.4995 H       1  <0>         0.0481
     85 H42        17.9080  -23.8243    5.0061 H       1  <0>         0.0317
@<TRIPOS>BOND
     1    15    68    1
     2    15    34    2
     3    15    35    1
     4     5    57    1
     5    14    34    1
     6     5    35    1
     7    29    35    1
     8     5    58    1
     9     5    56    1
    10    10    63    1
    11    14    29    2
    12    14    67    1
    13    12    65    1
    14    22    29    1
    15    10    12   ar
    16    10    26   ar
    17    12    27   ar
    18    24    33    3
    19    22    81    1
    20    24    26    1
    21    22    82    1
    22    22    37    1
    23    11    26   ar
    24    27    37    1
    25    13    27   ar
    26    20    37    1
    27     1    44    1
    28    11    13   ar
    29    11    64    1
    30    21    79    1
    31    13    66    1
    32     1    46    1
    33     1    45    1
    34     1    25    1
    35    41    43    2
    36    20    21    1
    37    20    77    1
    38    20    78    1
    39    21    80    1
    40    21    38    1
    41    16    69    1
    42     8    25   ar
    43    25    28   ar
    44     8    61    1
    45    38    43    1
    46    28    43    1
    47    40    43    2
    48    23    38    1
    49    30    85    1
    50    18    74    1
    51     6     8   ar
    52     9    28   ar
    53    18    73    1
    54    16    18    1
    55    16    30    1
    56    16    70    1
    57    18    36    1
    58    23    30    1
    59    17    30    1
    60    23    83    1
    61    23    84    1
    62     6    59    1
    63     6     7   ar
    64     7     9   ar
    65     9    62    1
    66     4    54    1
    67    19    75    1
    68     4    53    1
    69    19    36    1
    70    31    36   am
    71     7    60    1
    72    17    72    1
    73    17    19    1
    74    17    71    1
    75     4    55    1
    76     4    32    1
    77    19    76    1
    78    31    42    1
    79    32    42    1
    80    31    39    2
    81     2    32    1
    82     3    32    1
    83     2    47    1
    84     3    50    1
    85     2    48    1
    86     2    49    1
    87     3    52    1
    88     3    51    1
@<TRIPOS>SUBSTRUCTURE
     1 <0>         1 TEMP              0 ****  ****    0 ROOT

