
##########                                Name:               *****
##########                    Molecular_Weight:             606.789
##########                DOCK_Rotatable_Bonds:                  13
##########                       Formal_Charge:        -2.64496e-07
##########                     HBond_Acceptors:                  11
##########                        HBond_Donors:                   0
##########                         Heavy_Atoms:                  43
##########                            HA_RMSDs:               8.236
##########                            HA_RMSDh:               6.192
##########                            HA_RMSDm:               4.990
##########                          Grid_Score:          -62.445152
##########                     Grid_vdw_energy:          -61.633442
##########                      Grid_es_energy:           -0.811712
##########           Internal_energy_repulsive:           64.064865

@<TRIPOS>MOLECULE
*****
 85 88 1 0 0
SMALL
USER_CHARGES


@<TRIPOS>ATOM
      1 C1         15.8052  -22.7613    6.4759 C.3     1  <0>        -0.0378
      2 C2         15.6551  -18.7837   -0.9217 C.3     1  <0>        -0.0357
      3 C3         14.6028  -20.8087   -0.0279 C.3     1  <0>        -0.0357
      4 C4         14.3560  -18.5864    1.1719 C.3     1  <0>        -0.0357
      5 C5         22.4978  -24.1065   11.7745 C.3     1  <0>         0.0064
      6 C6         13.7304  -23.8932    3.5356 C.ar    1  <0>        -0.0614
      7 C7         14.3661  -25.0751    3.1837 C.ar    1  <0>        -0.0599
      8 C8         14.2181  -23.1537    4.6055 C.ar    1  <0>        -0.0570
      9 C9         15.4799  -25.5047    3.8970 C.ar    1  <0>        -0.0348
     10 C10        23.7901  -20.3024    6.9206 C.ar    1  <0>        -0.0426
     11 C11        23.0878  -21.1596    4.7794 C.ar    1  <0>        -0.0426
     12 C12        23.0192  -21.2733    7.5554 C.ar    1  <0>        -0.0394
     13 C13        22.3134  -22.1250    5.4109 C.ar    1  <0>        -0.0394
     14 C14        20.2025  -22.0687    9.6877 C.2     1  <0>         0.0478
     15 C15        20.5974  -22.4406   11.8508 C.2     1  <0>         0.0877
     16 C16        18.0091  -21.7612    3.7681 C.3     1  <0>        -0.0327
     17 C17        19.4789  -22.9189    2.0669 C.3     1  <0>        -0.0327
     18 C18        18.2653  -20.4395    3.0317 C.3     1  <0>         0.0171
     19 C19        19.5986  -21.5947    1.3378 C.3     1  <0>         0.0171
     20 C20        20.7698  -24.1404    6.6180 C.3     1  <0>         0.0297
     21 C21        19.3352  -23.6507    6.3267 C.3     1  <0>         0.0453
     22 C22        21.9602  -23.5898    8.7321 C.3     1  <0>         0.0520
     23 C23        18.6989  -24.1872    3.9115 C.3     1  <0>         0.0326
     24 C24        24.5218  -19.3542    4.9116 C.1     1  <0>         0.0992
     25 C25        15.3225  -23.5909    5.3250 C.ar    1  <0>        -0.0239
     26 C26        23.8281  -20.2523    5.5262 C.ar    1  <0>         0.0519
     27 C27        22.2953  -22.2022    6.8050 C.ar    1  <0>         0.0301
     28 C28        15.9827  -24.7619    4.9675 C.ar    1  <0>         0.1112
     29 C29        21.2337  -22.9703    9.8863 C.2     1  <0>         0.0469
     30 C30        19.1407  -22.7752    3.5443 C.3     1  <0>        -0.0211
     31 C31        17.5036  -20.5918    0.7614 C.2     1  <0>         0.3553
     32 C32        15.2580  -19.5026    0.3582 C.3     1  <0>         0.0721
     33 N1         25.1117  -18.5352    4.3284 N.1     1  <0>        -0.1909
     34 N2         19.8324  -21.7530   10.9530 N.2     1  <0>        -0.2463
     35 N3         21.4787  -23.2024   11.1803 N.pl3   1  <0>        -0.2951
     36 N4         18.3871  -20.8508    1.6335 N.am    1  <0>        -0.2776
     37 N5         21.4755  -23.1479    7.4582 N.pl3   1  <0>        -0.3227
     38 N6         18.7107  -24.5807    5.3336 N.pl3   1  <0>        -0.2323
     39 O1         17.5603  -20.9375   -0.4165 O.2     1  <0>        -0.2411
     40 O2         17.5057  -26.7158    5.2810 O.2     1  <0>        -0.1501
     41 O3         17.0884  -25.2949    7.2174 O.2     1  <0>        -0.1501
     42 O4         16.3740  -19.8159    1.1858 O.3     1  <0>        -0.2939
     43 S1         17.2971  -25.3174    5.7421 S.o2    1  <0>         0.0709
     44 H1         15.3072  -23.0899    7.3997 H       1  <0>         0.0278
     45 H2         16.8930  -22.8823    6.5834 H       1  <0>         0.0278
     46 H3         15.5699  -21.7031    6.2893 H       1  <0>         0.0278
     47 H4         16.1360  -17.8267   -0.6708 H       1  <0>         0.0257
     48 H5         16.3583  -19.4092   -1.4905 H       1  <0>         0.0257
     49 H6         14.7576  -18.5949   -1.5295 H       1  <0>         0.0257
     50 H7         14.3038  -21.3520    0.8805 H       1  <0>         0.0257
     51 H8         13.7132  -20.6049   -0.6419 H       1  <0>         0.0257
     52 H9         15.3140  -21.4192   -0.6029 H       1  <0>         0.0257
     53 H10        14.0603  -19.0941    2.1018 H       1  <0>         0.0257
     54 H11        14.8978  -17.6611    1.4155 H       1  <0>         0.0257
     55 H12        13.4578  -18.3417    0.5864 H       1  <0>         0.0257
     56 H13        23.0694  -24.5944   10.9713 H       1  <0>         0.0432
     57 H14        23.1817  -23.5217   12.4075 H       1  <0>         0.0432
     58 H15        21.9970  -24.8720   12.3845 H       1  <0>         0.0432
     59 H16        12.8663  -23.5520    2.9843 H       1  <0>         0.0618
     60 H17        13.9961  -25.6611    2.3557 H       1  <0>         0.0618
     61 H18        13.7328  -22.2284    4.8811 H       1  <0>         0.0621
     62 H19        15.9644  -26.4291    3.6188 H       1  <0>         0.0637
     63 H20        24.3557  -19.5922    7.5048 H       1  <0>         0.0631
     64 H21        23.1143  -21.1141    3.7007 H       1  <0>         0.0631
     65 H22        22.9813  -21.3074    8.6343 H       1  <0>         0.0636
     66 H23        21.7260  -22.8149    4.8240 H       1  <0>         0.0636
     67 H24        19.7937  -21.7062    8.7561 H       1  <0>         0.0846
     68 H25        20.5088  -22.3816   12.9254 H       1  <0>         0.1002
     69 H26        17.9313  -21.5534    4.8458 H       1  <0>         0.0284
     70 H27        17.0701  -22.1946    3.3938 H       1  <0>         0.0284
     71 H28        18.6775  -23.5012    1.5886 H       1  <0>         0.0284
     72 H29        20.4439  -23.4418    1.9867 H       1  <0>         0.0284
     73 H30        17.4369  -19.7295    3.1738 H       1  <0>         0.0465
     74 H31        19.1814  -19.9479    3.3902 H       1  <0>         0.0465
     75 H32        20.4842  -21.0418    1.6862 H       1  <0>         0.0465
     76 H33        19.6950  -21.7584    0.2545 H       1  <0>         0.0465
     77 H34        20.7261  -25.1027    7.1491 H       1  <0>         0.0480
     78 H35        21.3119  -24.2670    5.6696 H       1  <0>         0.0480
     79 H36        18.7465  -23.6473    7.2556 H       1  <0>         0.0493
     80 H37        19.3653  -22.6312    5.9159 H       1  <0>         0.0493
     81 H38        23.0235  -23.3195    8.8091 H       1  <0>         0.0526
     82 H39        21.8319  -24.6807    8.7903 H       1  <0>         0.0526
     83 H40        17.6600  -24.2905    3.5660 H       1  <0>         0.0481
     84 H41        19.3808  -24.8749    3.3899 H       1  <0>         0.0481
     85 H42        19.9782  -22.4001    4.1520 H       1  <0>         0.0317
@<TRIPOS>BOND
     1    15    68    1
     2    15    34    2
     3    15    35    1
     4     5    57    1
     5    14    34    1
     6     5    35    1
     7    29    35    1
     8     5    58    1
     9     5    56    1
    10    10    63    1
    11    14    29    2
    12    14    67    1
    13    12    65    1
    14    22    29    1
    15    10    12   ar
    16    10    26   ar
    17    12    27   ar
    18    24    33    3
    19    22    81    1
    20    24    26    1
    21    22    82    1
    22    22    37    1
    23    11    26   ar
    24    27    37    1
    25    13    27   ar
    26    20    37    1
    27     1    44    1
    28    11    13   ar
    29    11    64    1
    30    21    79    1
    31    13    66    1
    32     1    46    1
    33     1    45    1
    34     1    25    1
    35    41    43    2
    36    20    21    1
    37    20    77    1
    38    20    78    1
    39    21    80    1
    40    21    38    1
    41    16    69    1
    42     8    25   ar
    43    25    28   ar
    44     8    61    1
    45    38    43    1
    46    28    43    1
    47    40    43    2
    48    23    38    1
    49    30    85    1
    50    18    74    1
    51     6     8   ar
    52     9    28   ar
    53    18    73    1
    54    16    18    1
    55    16    30    1
    56    16    70    1
    57    18    36    1
    58    23    30    1
    59    17    30    1
    60    23    83    1
    61    23    84    1
    62     6    59    1
    63     6     7   ar
    64     7     9   ar
    65     9    62    1
    66     4    54    1
    67    19    75    1
    68     4    53    1
    69    19    36    1
    70    31    36   am
    71     7    60    1
    72    17    72    1
    73    17    19    1
    74    17    71    1
    75     4    55    1
    76     4    32    1
    77    19    76    1
    78    31    42    1
    79    32    42    1
    80    31    39    2
    81     2    32    1
    82     3    32    1
    83     2    47    1
    84     3    50    1
    85     2    48    1
    86     2    49    1
    87     3    52    1
    88     3    51    1
@<TRIPOS>SUBSTRUCTURE
     1 <0>         1 TEMP              0 ****  ****    0 ROOT

