
##########                                Name:               *****
##########                    Molecular_Weight:             606.789
##########                DOCK_Rotatable_Bonds:                  13
##########                       Formal_Charge:        -2.64496e-07
##########                     HBond_Acceptors:                  11
##########                        HBond_Donors:                   0
##########                         Heavy_Atoms:                  43
##########                            HA_RMSDs:               9.703
##########                            HA_RMSDh:               7.246
##########                            HA_RMSDm:               5.839
##########                          Grid_Score:         4371.487305
##########                     Grid_vdw_energy:         4371.155273
##########                      Grid_es_energy:            0.332118
##########           Internal_energy_repulsive:           77.615112

@<TRIPOS>MOLECULE
*****
 85 88 1 0 0
SMALL
USER_CHARGES


@<TRIPOS>ATOM
      1 C1         12.7112  -25.9799    4.9470 C.3     1  <0>        -0.0378
      2 C2         15.9256  -18.9578   -0.1268 C.3     1  <0>        -0.0357
      3 C3         15.6359  -21.3674   -0.4682 C.3     1  <0>        -0.0357
      4 C4         13.6443  -19.8892    0.0679 C.3     1  <0>        -0.0357
      5 C5         16.4739  -31.4780    9.6946 C.3     1  <0>         0.0064
      6 C6         13.0507  -24.6146    1.4467 C.ar    1  <0>        -0.0614
      7 C7         14.2837  -25.1246    1.0664 C.ar    1  <0>        -0.0599
      8 C8         12.5609  -24.9003    2.7147 C.ar    1  <0>        -0.0570
      9 C9         15.0150  -25.9084    1.9520 C.ar    1  <0>        -0.0348
     10 C10        17.3583  -25.8067   12.1444 C.ar    1  <0>        -0.0426
     11 C11        18.1639  -24.1275   10.6134 C.ar    1  <0>        -0.0426
     12 C12        17.1019  -26.6549   11.0697 C.ar    1  <0>        -0.0394
     13 C13        17.9031  -24.9699    9.5396 C.ar    1  <0>        -0.0394
     14 C14        14.6131  -28.3248    9.0861 C.2     1  <0>         0.0478
     15 C15        14.1668  -30.4478    9.6023 C.2     1  <0>         0.0877
     16 C16        15.4450  -23.2377    4.0201 C.3     1  <0>        -0.0327
     17 C17        17.9340  -22.9114    4.3253 C.3     1  <0>        -0.0327
     18 C18        15.2752  -21.7148    4.1022 C.3     1  <0>         0.0171
     19 C19        17.6948  -21.4143    4.2925 C.3     1  <0>         0.0171
     20 C20        17.5192  -26.6746    7.3318 C.3     1  <0>         0.0297
     21 C21        16.3245  -26.0792    6.5565 C.3     1  <0>         0.0453
     22 C22        17.1180  -28.4979    8.9762 C.3     1  <0>         0.0520
     23 C23        17.0947  -25.1283    4.3141 C.3     1  <0>         0.0326
     24 C24        18.1322  -23.7286   12.8878 C.1     1  <0>         0.0992
     25 C25        13.2866  -25.6941    3.5931 C.ar    1  <0>        -0.0239
     26 C26        17.8984  -24.5407   11.9125 C.ar    1  <0>         0.0519
     27 C27        17.3929  -26.2499    9.7654 C.ar    1  <0>         0.0301
     28 C28        14.5344  -26.1919    3.2323 C.ar    1  <0>         0.1112
     29 C29        15.7603  -29.0917    9.1946 C.2     1  <0>         0.0469
     30 C30        16.7119  -23.7168    4.7442 C.3     1  <0>        -0.0211
     31 C31        16.5220  -20.6440    2.3539 C.2     1  <0>         0.3553
     32 C32        15.1203  -20.1742    0.3030 C.3     1  <0>         0.0721
     33 N1         18.3231  -22.9608   13.7439 N.1     1  <0>        -0.1909
     34 N2         13.6292  -29.2169    9.3575 N.2     1  <0>        -0.2463
     35 N3         15.5047  -30.3677    9.5026 N.pl3   1  <0>        -0.2951
     36 N4         16.5022  -21.2054    3.4909 N.am    1  <0>        -0.2776
     37 N5         17.0795  -27.0966    8.6800 N.pl3   1  <0>        -0.3227
     38 N6         16.5704  -26.2674    5.0918 N.pl3   1  <0>        -0.2323
     39 O1         17.5341  -20.2222    1.7991 O.2     1  <0>        -0.2411
     40 O2         16.2891  -27.9650    3.3446 O.2     1  <0>        -0.1501
     41 O3         14.6002  -27.9433    5.1023 O.2     1  <0>        -0.1501
     42 O4         15.2628  -20.4706    1.6887 O.3     1  <0>        -0.2939
     43 S1         15.4519  -27.0995    4.2174 S.o2    1  <0>         0.0709
     44 H1         12.1116  -26.9007    4.9042 H       1  <0>         0.0278
     45 H2         13.5280  -26.1082    5.6721 H       1  <0>         0.0278
     46 H3         12.0719  -25.1406    5.2583 H       1  <0>         0.0278
     47 H4         15.5713  -18.0715    0.4199 H       1  <0>         0.0257
     48 H5         16.9895  -19.1249    0.0962 H       1  <0>         0.0257
     49 H6         15.7981  -18.7972   -1.2078 H       1  <0>         0.0257
     50 H7         15.0700  -22.2647   -0.1774 H       1  <0>         0.0257
     51 H8         15.5103  -21.1890   -1.5463 H       1  <0>         0.0257
     52 H9         16.7017  -21.5168   -0.2422 H       1  <0>         0.0257
     53 H10        13.0489  -20.7617    0.3745 H       1  <0>         0.0257
     54 H11        13.3419  -19.0127    0.6590 H       1  <0>         0.0257
     55 H12        13.4754  -19.6870   -0.9998 H       1  <0>         0.0257
     56 H13        17.4972  -31.1024    9.5473 H       1  <0>         0.0432
     57 H14        16.3742  -31.8789   10.7144 H       1  <0>         0.0432
     58 H15        16.2676  -32.2744    8.9652 H       1  <0>         0.0432
     59 H16        12.4782  -24.0027    0.7649 H       1  <0>         0.0618
     60 H17        14.6752  -24.9125    0.0827 H       1  <0>         0.0618
     61 H18        11.6046  -24.5007    3.0209 H       1  <0>         0.0621
     62 H19        15.9713  -26.3055    1.6445 H       1  <0>         0.0637
     63 H20        17.1406  -26.1276   13.1519 H       1  <0>         0.0631
     64 H21        18.5758  -23.1449   10.4369 H       1  <0>         0.0631
     65 H22        16.6752  -27.6312   11.2468 H       1  <0>         0.0636
     66 H23        18.0946  -24.6348    8.5314 H       1  <0>         0.0636
     67 H24        14.5235  -27.2758    8.8451 H       1  <0>         0.0846
     68 H25        13.6074  -31.3409    9.8380 H       1  <0>         0.1002
     69 H26        14.5709  -23.7143    4.4885 H       1  <0>         0.0284
     70 H27        15.5156  -23.5259    2.9611 H       1  <0>         0.0284
     71 H28        18.2247  -23.2333    3.3145 H       1  <0>         0.0284
     72 H29        18.7398  -23.1130    5.0472 H       1  <0>         0.0284
     73 H30        14.3811  -21.3770    3.5570 H       1  <0>         0.0465
     74 H31        15.1702  -21.3752    5.1429 H       1  <0>         0.0465
     75 H32        17.5466  -21.0254    5.3114 H       1  <0>         0.0465
     76 H33        18.5554  -20.8962    3.8445 H       1  <0>         0.0465
     77 H34        17.9104  -27.5460    6.7863 H       1  <0>         0.0480
     78 H35        18.3082  -25.9143    7.4266 H       1  <0>         0.0480
     79 H36        15.3973  -26.5937    6.8479 H       1  <0>         0.0493
     80 H37        16.2287  -25.0078    6.7844 H       1  <0>         0.0493
     81 H38        17.7080  -28.6402    9.8934 H       1  <0>         0.0526
     82 H39        17.5881  -29.0168    8.1279 H       1  <0>         0.0526
     83 H40        16.7250  -25.2538    3.2858 H       1  <0>         0.0481
     84 H41        18.1916  -25.1872    4.3716 H       1  <0>         0.0481
     85 H42        16.4738  -23.6285    5.8151 H       1  <0>         0.0317
@<TRIPOS>BOND
     1    15    68    1
     2    15    34    2
     3    15    35    1
     4     5    57    1
     5    14    34    1
     6     5    35    1
     7    29    35    1
     8     5    58    1
     9     5    56    1
    10    10    63    1
    11    14    29    2
    12    14    67    1
    13    12    65    1
    14    22    29    1
    15    10    12   ar
    16    10    26   ar
    17    12    27   ar
    18    24    33    3
    19    22    81    1
    20    24    26    1
    21    22    82    1
    22    22    37    1
    23    11    26   ar
    24    27    37    1
    25    13    27   ar
    26    20    37    1
    27     1    44    1
    28    11    13   ar
    29    11    64    1
    30    21    79    1
    31    13    66    1
    32     1    46    1
    33     1    45    1
    34     1    25    1
    35    41    43    2
    36    20    21    1
    37    20    77    1
    38    20    78    1
    39    21    80    1
    40    21    38    1
    41    16    69    1
    42     8    25   ar
    43    25    28   ar
    44     8    61    1
    45    38    43    1
    46    28    43    1
    47    40    43    2
    48    23    38    1
    49    30    85    1
    50    18    74    1
    51     6     8   ar
    52     9    28   ar
    53    18    73    1
    54    16    18    1
    55    16    30    1
    56    16    70    1
    57    18    36    1
    58    23    30    1
    59    17    30    1
    60    23    83    1
    61    23    84    1
    62     6    59    1
    63     6     7   ar
    64     7     9   ar
    65     9    62    1
    66     4    54    1
    67    19    75    1
    68     4    53    1
    69    19    36    1
    70    31    36   am
    71     7    60    1
    72    17    72    1
    73    17    19    1
    74    17    71    1
    75     4    55    1
    76     4    32    1
    77    19    76    1
    78    31    42    1
    79    32    42    1
    80    31    39    2
    81     2    32    1
    82     3    32    1
    83     2    47    1
    84     3    50    1
    85     2    48    1
    86     2    49    1
    87     3    52    1
    88     3    51    1
@<TRIPOS>SUBSTRUCTURE
     1 <0>         1 TEMP              0 ****  ****    0 ROOT

