
##########                                Name:               *****
##########                    Molecular_Weight:             606.789
##########                DOCK_Rotatable_Bonds:                  13
##########                       Formal_Charge:        -2.64496e-07
##########                     HBond_Acceptors:                  11
##########                        HBond_Donors:                   0
##########                         Heavy_Atoms:                  43
##########                            HA_RMSDs:               0.629
##########                            HA_RMSDh:               0.629
##########                            HA_RMSDm:               0.622
##########                          Grid_Score:          -68.432442
##########                     Grid_vdw_energy:          -67.213646
##########                      Grid_es_energy:           -1.218796
##########           Internal_energy_repulsive:           62.686798

@<TRIPOS>MOLECULE
*****
 85 88 1 0 0
SMALL
USER_CHARGES


@<TRIPOS>ATOM
      1 C1         14.1907  -24.5268    2.7746 C.3     1  <0>        -0.0378
      2 C2         15.4258  -29.9160    8.7593 C.3     1  <0>        -0.0357
      3 C3         13.7994  -28.1050    8.4731 C.3     1  <0>        -0.0357
      4 C4         14.1329  -29.8425    6.6540 C.3     1  <0>        -0.0357
      5 C5         17.4339  -17.4908   -0.7358 C.3     1  <0>         0.0064
      6 C6         11.9961  -25.4731    5.6934 C.ar    1  <0>        -0.0614
      7 C7         11.9609  -24.2870    6.4124 C.ar    1  <0>        -0.0599
      8 C8         12.7317  -25.5308    4.5166 C.ar    1  <0>        -0.0570
      9 C9         12.6598  -23.1754    5.9546 C.ar    1  <0>        -0.0348
     10 C10        21.6858  -21.9374    0.6556 C.ar    1  <0>        -0.0426
     11 C11        21.3243  -23.1182    2.7262 C.ar    1  <0>        -0.0426
     12 C12        20.4688  -21.2813    0.8243 C.ar    1  <0>        -0.0394
     13 C13        20.1071  -22.4691    2.8931 C.ar    1  <0>        -0.0394
     14 C14        17.4597  -21.1953   -0.5093 C.2     1  <0>         0.0478
     15 C15        16.8693  -19.6213   -1.9745 C.2     1  <0>         0.0877
     16 C16        16.3538  -25.0860    5.2502 C.3     1  <0>        -0.0327
     17 C17        17.4472  -24.0175    7.2646 C.3     1  <0>        -0.0327
     18 C18        17.1165  -26.3783    5.5710 C.3     1  <0>         0.0171
     19 C19        18.0830  -25.3591    7.5731 C.3     1  <0>         0.0171
     20 C20        17.7680  -20.9584    3.4099 C.3     1  <0>         0.0297
     21 C21        16.7517  -22.1202    3.4309 C.3     1  <0>         0.0453
     22 C22        18.2745  -19.6897    1.3307 C.3     1  <0>         0.0520
     23 C23        16.1293  -22.6429    5.8528 C.3     1  <0>         0.0326
     24 C24        23.2319  -23.4875    1.4782 C.1     1  <0>         0.0992
     25 C25        13.4182  -24.4158    4.0539 C.ar    1  <0>        -0.0239
     26 C26        22.1160  -22.8541    1.6162 C.ar    1  <0>         0.0519
     27 C27        19.6846  -21.5270    1.9532 C.ar    1  <0>         0.0301
     28 C28        13.4099  -23.2280    4.7777 C.ar    1  <0>         0.1112
     29 C29        17.6910  -19.9176   -0.0299 C.2     1  <0>         0.0469
     30 C30        17.0682  -23.8427    5.8005 C.3     1  <0>        -0.0211
     31 C31        16.5284  -27.1691    7.7588 C.2     1  <0>         0.3553
     32 C32        14.7778  -28.9930    7.7391 C.3     1  <0>         0.0721
     33 N1         24.2178  -24.0993    1.3654 N.1     1  <0>        -0.1909
     34 N2         16.9469  -20.9646   -1.7428 N.2     1  <0>        -0.2463
     35 N3         17.3392  -18.9649   -0.9000 N.pl3   1  <0>        -0.2951
     36 N4         17.1931  -26.3708    7.0315 N.am    1  <0>        -0.2776
     37 N5         18.4285  -20.8965    2.0875 N.pl3   1  <0>        -0.3227
     38 N6         15.8345  -21.9249    4.5978 N.pl3   1  <0>        -0.2323
     39 O1         16.5504  -27.1800    8.9875 O.2     1  <0>        -0.2411
     40 O2         13.7438  -20.7877    5.1890 O.2     1  <0>        -0.1501
     41 O3         13.9249  -21.5741    2.8888 O.2     1  <0>        -0.1501
     42 O4         15.7162  -28.1427    7.0875 O.3     1  <0>        -0.2939
     43 S1         14.2136  -21.8953    4.3149 S.o2    1  <0>         0.0709
     44 H1         13.5444  -24.2476    1.9299 H       1  <0>         0.0278
     45 H2         15.0579  -23.8513    2.8109 H       1  <0>         0.0278
     46 H3         14.5371  -25.5626    2.6441 H       1  <0>         0.0278
     47 H4         16.1451  -30.5758    8.2521 H       1  <0>         0.0257
     48 H5         15.9505  -29.3150    9.5163 H       1  <0>         0.0257
     49 H6         14.6502  -30.5250    9.2473 H       1  <0>         0.0257
     50 H7         13.3136  -27.4248    7.7582 H       1  <0>         0.0257
     51 H8         13.0360  -28.7273    8.9628 H       1  <0>         0.0257
     52 H9         14.3362  -27.5174    9.2318 H       1  <0>         0.0257
     53 H10        13.6593  -29.1872    5.9081 H       1  <0>         0.0257
     54 H11        14.9018  -30.4583    6.1656 H       1  <0>         0.0257
     55 H12        13.3714  -30.4960    7.1039 H       1  <0>         0.0257
     56 H13        17.8594  -17.2574    0.2513 H       1  <0>         0.0432
     57 H14        18.0825  -17.0757   -1.5216 H       1  <0>         0.0432
     58 H15        16.4307  -17.0482   -0.8160 H       1  <0>         0.0432
     59 H16        11.4579  -26.3415    6.0444 H       1  <0>         0.0618
     60 H17        11.3911  -24.2275    7.3276 H       1  <0>         0.0618
     61 H18        12.7699  -26.4531    3.9547 H       1  <0>         0.0621
     62 H19        12.6215  -22.2550    6.5185 H       1  <0>         0.0637
     63 H20        22.2933  -21.7372   -0.2141 H       1  <0>         0.0631
     64 H21        21.6570  -23.8329    3.4644 H       1  <0>         0.0631
     65 H22        20.1301  -20.5786    0.0771 H       1  <0>         0.0636
     66 H23        19.4885  -22.6933    3.7490 H       1  <0>         0.0636
     67 H24        17.6422  -22.1417   -0.0220 H       1  <0>         0.0846
     68 H25        16.4918  -19.1611   -2.8755 H       1  <0>         0.1002
     69 H26        16.2712  -24.9890    4.1573 H       1  <0>         0.0284
     70 H27        15.3544  -25.1467    5.7050 H       1  <0>         0.0284
     71 H28        16.5315  -23.9265    7.8672 H       1  <0>         0.0284
     72 H29        18.1686  -23.2289    7.5271 H       1  <0>         0.0284
     73 H30        16.5838  -27.2661    5.1985 H       1  <0>         0.0465
     74 H31        18.1165  -26.3820    5.1133 H       1  <0>         0.0465
     75 H32        19.0769  -25.4311    7.1060 H       1  <0>         0.0465
     76 H33        18.1990  -25.4901    8.6590 H       1  <0>         0.0465
     77 H34        17.2428  -20.0108    3.6001 H       1  <0>         0.0480
     78 H35        18.5262  -21.1226    4.1893 H       1  <0>         0.0480
     79 H36        16.1710  -22.1246    2.4971 H       1  <0>         0.0493
     80 H37        17.2824  -23.0782    3.5294 H       1  <0>         0.0493
     81 H38        19.2665  -19.2308    1.2078 H       1  <0>         0.0526
     82 H39        17.6024  -19.0184    1.8853 H       1  <0>         0.0526
     83 H40        15.1673  -23.0140    6.2353 H       1  <0>         0.0481
     84 H41        16.5923  -21.9115    6.5315 H       1  <0>         0.0481
     85 H42        17.9345  -23.6996    5.1367 H       1  <0>         0.0317
@<TRIPOS>BOND
     1    15    68    1
     2    15    34    2
     3    15    35    1
     4     5    57    1
     5    14    34    1
     6     5    35    1
     7    29    35    1
     8     5    58    1
     9     5    56    1
    10    10    63    1
    11    14    29    2
    12    14    67    1
    13    12    65    1
    14    22    29    1
    15    10    12   ar
    16    10    26   ar
    17    12    27   ar
    18    24    33    3
    19    22    81    1
    20    24    26    1
    21    22    82    1
    22    22    37    1
    23    11    26   ar
    24    27    37    1
    25    13    27   ar
    26    20    37    1
    27     1    44    1
    28    11    13   ar
    29    11    64    1
    30    21    79    1
    31    13    66    1
    32     1    46    1
    33     1    45    1
    34     1    25    1
    35    41    43    2
    36    20    21    1
    37    20    77    1
    38    20    78    1
    39    21    80    1
    40    21    38    1
    41    16    69    1
    42     8    25   ar
    43    25    28   ar
    44     8    61    1
    45    38    43    1
    46    28    43    1
    47    40    43    2
    48    23    38    1
    49    30    85    1
    50    18    74    1
    51     6     8   ar
    52     9    28   ar
    53    18    73    1
    54    16    18    1
    55    16    30    1
    56    16    70    1
    57    18    36    1
    58    23    30    1
    59    17    30    1
    60    23    83    1
    61    23    84    1
    62     6    59    1
    63     6     7   ar
    64     7     9   ar
    65     9    62    1
    66     4    54    1
    67    19    75    1
    68     4    53    1
    69    19    36    1
    70    31    36   am
    71     7    60    1
    72    17    72    1
    73    17    19    1
    74    17    71    1
    75     4    55    1
    76     4    32    1
    77    19    76    1
    78    31    42    1
    79    32    42    1
    80    31    39    2
    81     2    32    1
    82     3    32    1
    83     2    47    1
    84     3    50    1
    85     2    48    1
    86     2    49    1
    87     3    52    1
    88     3    51    1
@<TRIPOS>SUBSTRUCTURE
     1 <0>         1 TEMP              0 ****  ****    0 ROOT

