
##########                                Name:               *****
##########                    Molecular_Weight:             606.789
##########                DOCK_Rotatable_Bonds:                  13
##########                       Formal_Charge:        -2.64496e-07
##########                     HBond_Acceptors:                  11
##########                        HBond_Donors:                   0
##########                         Heavy_Atoms:                  43
##########                            HA_RMSDs:               0.421
##########                            HA_RMSDh:               0.421
##########                            HA_RMSDm:               0.421
##########                          Grid_Score:          -66.919884
##########                     Grid_vdw_energy:          -65.673859
##########                      Grid_es_energy:           -1.246026
##########           Internal_energy_repulsive:           62.223099

@<TRIPOS>MOLECULE
*****
 85 88 1 0 0
SMALL
USER_CHARGES


@<TRIPOS>ATOM
      1 C1         13.9461  -24.3945    2.5615 C.3     1  <0>        -0.0378
      2 C2         15.5274  -29.4270    8.7348 C.3     1  <0>        -0.0357
      3 C3         14.1410  -27.5563    7.9699 C.3     1  <0>        -0.0357
      4 C4         14.4952  -29.5905    6.4948 C.3     1  <0>        -0.0357
      5 C5         18.4645  -17.7739   -1.5594 C.3     1  <0>         0.0064
      6 C6         12.1796  -24.8314    5.8661 C.ar    1  <0>        -0.0614
      7 C7         12.4361  -23.6153    6.4828 C.ar    1  <0>        -0.0599
      8 C8         12.6847  -25.0660    4.5936 C.ar    1  <0>        -0.0570
      9 C9         13.1939  -22.6501    5.8286 C.ar    1  <0>        -0.0348
     10 C10        22.1491  -21.7460    0.1135 C.ar    1  <0>        -0.0426
     11 C11        21.8868  -23.0129    2.1479 C.ar    1  <0>        -0.0426
     12 C12        20.9014  -21.1633    0.3226 C.ar    1  <0>        -0.0394
     13 C13        20.6393  -22.4371    2.3550 C.ar    1  <0>        -0.0394
     14 C14        17.3513  -21.2142   -0.7222 C.2     1  <0>         0.0478
     15 C15        17.2546  -19.8075   -2.4499 C.2     1  <0>         0.0877
     16 C16        16.7350  -24.9982    4.8840 C.3     1  <0>        -0.0327
     17 C17        17.8687  -23.8336    6.8213 C.3     1  <0>        -0.0327
     18 C18        17.5229  -26.2669    5.2367 C.3     1  <0>         0.0171
     19 C19        18.5301  -25.1535    7.1674 C.3     1  <0>         0.0171
     20 C20        18.2533  -21.0271    2.9725 C.3     1  <0>         0.0297
     21 C21        17.1201  -22.0751    2.9570 C.3     1  <0>         0.0453
     22 C22        18.6149  -19.7406    0.8741 C.3     1  <0>         0.0520
     23 C23        16.4950  -22.5350    5.3909 C.3     1  <0>         0.0326
     24 C24        23.7903  -23.2359    0.8596 C.1     1  <0>         0.0992
     25 C25        13.4302  -24.0960    3.9364 C.ar    1  <0>        -0.0239
     26 C26        22.6443  -22.6693    1.0357 C.ar    1  <0>         0.0519
     27 C27        20.1507  -21.4888    1.4542 C.ar    1  <0>         0.0301
     28 C28        13.7139  -22.8820    4.5534 C.ar    1  <0>         0.1112
     29 C29        17.9712  -20.0065   -0.4521 C.2     1  <0>         0.0469
     30 C30        17.4477  -23.7246    5.3623 C.3     1  <0>        -0.0211
     31 C31        17.0050  -26.9726    7.4708 C.2     1  <0>         0.3553
     32 C32        15.0982  -28.6323    7.5113 C.3     1  <0>         0.0721
     33 N1         24.8058  -23.7888    0.7113 N.1     1  <0>        -0.1909
     34 N2         16.9179  -21.0505   -1.9962 N.2     1  <0>        -0.2463
     35 N3         17.9182  -19.1539   -1.4810 N.pl3   1  <0>        -0.2951
     36 N4         17.6391  -26.1974    6.6930 N.am    1  <0>        -0.2776
     37 N5         18.8648  -20.9326    1.6286 N.pl3   1  <0>        -0.3227
     38 N6         16.2241  -21.8199    4.1289 N.pl3   1  <0>        -0.2323
     39 O1         17.0606  -26.9319    8.6978 O.2     1  <0>        -0.2411
     40 O2         14.2371  -20.4403    4.5320 O.2     1  <0>        -0.1501
     41 O3         14.3088  -21.6230    2.4016 O.2     1  <0>        -0.1501
     42 O4         16.1876  -27.9830    6.8632 O.3     1  <0>        -0.2939
     43 S1         14.6041  -21.7149    3.8593 S.o2    1  <0>         0.0709
     44 H1         13.2088  -24.0681    1.8137 H       1  <0>         0.0278
     45 H2         14.8924  -23.8576    2.4011 H       1  <0>         0.0278
     46 H3         14.1160  -25.4766    2.4605 H       1  <0>         0.0278
     47 H4         16.2268  -30.2196    8.4304 H       1  <0>         0.0257
     48 H5         16.0230  -28.7567    9.4521 H       1  <0>         0.0257
     49 H6         14.6426  -29.8798    9.2065 H       1  <0>         0.0257
     50 H7         13.8124  -26.9638    7.1034 H       1  <0>         0.0257
     51 H8         13.2666  -28.0229    8.4469 H       1  <0>         0.0257
     52 H9         14.6469  -26.8998    8.6925 H       1  <0>         0.0257
     53 H10        14.1795  -29.0287    5.6034 H       1  <0>         0.0257
     54 H11        15.2460  -30.3410    6.2086 H       1  <0>         0.0257
     55 H12        13.6239  -30.0945    6.9380 H       1  <0>         0.0257
     56 H13        18.9544  -17.5179   -0.6085 H       1  <0>         0.0432
     57 H14        19.1987  -17.7165   -2.3768 H       1  <0>         0.0432
     58 H15        17.6453  -17.0662   -1.7514 H       1  <0>         0.0432
     59 H16        11.5940  -25.5869    6.3692 H       1  <0>         0.0618
     60 H17        12.0475  -23.4187    7.4708 H       1  <0>         0.0618
     61 H18        12.4954  -26.0135    4.1096 H       1  <0>         0.0621
     62 H19        13.3833  -21.7044    6.3148 H       1  <0>         0.0637
     63 H20        22.7302  -21.4842   -0.7579 H       1  <0>         0.0631
     64 H21        22.2700  -23.7324    2.8562 H       1  <0>         0.0631
     65 H22        20.5127  -20.4558   -0.3950 H       1  <0>         0.0636
     66 H23        20.0481  -22.7231    3.2119 H       1  <0>         0.0636
     67 H24        17.2401  -22.0741   -0.0782 H       1  <0>         0.0846
     68 H25        17.0250  -19.4137   -3.4289 H       1  <0>         0.1002
     69 H26        16.6214  -24.9479    3.7907 H       1  <0>         0.0284
     70 H27        15.7491  -25.0519    5.3685 H       1  <0>         0.0284
     71 H28        16.9686  -23.7285    7.4448 H       1  <0>         0.0284
     72 H29        18.5865  -23.0263    7.0309 H       1  <0>         0.0284
     73 H30        16.9919  -27.1757    4.9162 H       1  <0>         0.0465
     74 H31        18.5100  -26.2777    4.7520 H       1  <0>         0.0465
     75 H32        19.5118  -25.2330    6.6762 H       1  <0>         0.0465
     76 H33        18.6773  -25.2377    8.2541 H       1  <0>         0.0465
     77 H34        17.8405  -20.0474    3.2552 H       1  <0>         0.0480
     78 H35        19.0194  -21.3286    3.7017 H       1  <0>         0.0480
     79 H36        16.5457  -21.9894    2.0231 H       1  <0>         0.0493
     80 H37        17.5462  -23.0863    3.0261 H       1  <0>         0.0493
     81 H38        19.5765  -19.2375    0.6957 H       1  <0>         0.0526
     82 H39        17.9426  -19.0964    1.4598 H       1  <0>         0.0526
     83 H40        15.5277  -22.9165    5.7492 H       1  <0>         0.0481
     84 H41        16.9329  -21.7988    6.0810 H       1  <0>         0.0481
     85 H42        18.2937  -23.5990    4.6694 H       1  <0>         0.0317
@<TRIPOS>BOND
     1    15    68    1
     2    15    34    2
     3    15    35    1
     4     5    57    1
     5    14    34    1
     6     5    35    1
     7    29    35    1
     8     5    58    1
     9     5    56    1
    10    10    63    1
    11    14    29    2
    12    14    67    1
    13    12    65    1
    14    22    29    1
    15    10    12   ar
    16    10    26   ar
    17    12    27   ar
    18    24    33    3
    19    22    81    1
    20    24    26    1
    21    22    82    1
    22    22    37    1
    23    11    26   ar
    24    27    37    1
    25    13    27   ar
    26    20    37    1
    27     1    44    1
    28    11    13   ar
    29    11    64    1
    30    21    79    1
    31    13    66    1
    32     1    46    1
    33     1    45    1
    34     1    25    1
    35    41    43    2
    36    20    21    1
    37    20    77    1
    38    20    78    1
    39    21    80    1
    40    21    38    1
    41    16    69    1
    42     8    25   ar
    43    25    28   ar
    44     8    61    1
    45    38    43    1
    46    28    43    1
    47    40    43    2
    48    23    38    1
    49    30    85    1
    50    18    74    1
    51     6     8   ar
    52     9    28   ar
    53    18    73    1
    54    16    18    1
    55    16    30    1
    56    16    70    1
    57    18    36    1
    58    23    30    1
    59    17    30    1
    60    23    83    1
    61    23    84    1
    62     6    59    1
    63     6     7   ar
    64     7     9   ar
    65     9    62    1
    66     4    54    1
    67    19    75    1
    68     4    53    1
    69    19    36    1
    70    31    36   am
    71     7    60    1
    72    17    72    1
    73    17    19    1
    74    17    71    1
    75     4    55    1
    76     4    32    1
    77    19    76    1
    78    31    42    1
    79    32    42    1
    80    31    39    2
    81     2    32    1
    82     3    32    1
    83     2    47    1
    84     3    50    1
    85     2    48    1
    86     2    49    1
    87     3    52    1
    88     3    51    1
@<TRIPOS>SUBSTRUCTURE
     1 <0>         1 TEMP              0 ****  ****    0 ROOT

