
##########                                Name:               *****
##########                    Molecular_Weight:             606.789
##########                DOCK_Rotatable_Bonds:                  13
##########                       Formal_Charge:        -2.64496e-07
##########                     HBond_Acceptors:                  11
##########                        HBond_Donors:                   0
##########                         Heavy_Atoms:                  43
##########                            HA_RMSDs:               0.588
##########                            HA_RMSDh:               0.588
##########                            HA_RMSDm:               0.587
##########                          Grid_Score:          -64.065788
##########                     Grid_vdw_energy:          -62.489109
##########                      Grid_es_energy:           -1.576680
##########           Internal_energy_repulsive:           69.797432

@<TRIPOS>MOLECULE
*****
 85 88 1 0 0
SMALL
USER_CHARGES


@<TRIPOS>ATOM
      1 C1         14.0284  -24.1353    2.4673 C.3     1  <0>        -0.0378
      2 C2         15.7007  -30.0689    8.6975 C.3     1  <0>        -0.0357
      3 C3         14.0763  -28.2353    8.7775 C.3     1  <0>        -0.0357
      4 C4         14.1430  -29.8175    6.7948 C.3     1  <0>        -0.0357
      5 C5         16.8272  -17.4985   -0.8841 C.3     1  <0>         0.0064
      6 C6         12.3594  -25.4663    5.5777 C.ar    1  <0>        -0.0614
      7 C7         12.5927  -24.4394    6.4810 C.ar    1  <0>        -0.0599
      8 C8         12.8398  -25.3494    4.2796 C.ar    1  <0>        -0.0570
      9 C9         13.3032  -23.3119    6.0838 C.ar    1  <0>        -0.0348
     10 C10        21.5001  -21.1758   -0.0697 C.ar    1  <0>        -0.0426
     11 C11        21.7062  -22.3849    2.0059 C.ar    1  <0>        -0.0426
     12 C12        20.2377  -20.7343    0.3198 C.ar    1  <0>        -0.0394
     13 C13        20.4446  -21.9504    2.3935 C.ar    1  <0>        -0.0394
     14 C14        17.3008  -21.1677   -0.5874 C.2     1  <0>         0.0478
     15 C15        16.5268  -19.7047   -2.0819 C.2     1  <0>         0.0877
     16 C16        16.5545  -25.1487    5.2941 C.3     1  <0>        -0.0327
     17 C17        17.8109  -24.1689    7.2578 C.3     1  <0>        -0.0327
     18 C18        17.2403  -26.4921    5.5761 C.3     1  <0>         0.0171
     19 C19        18.3662  -25.5528    7.5334 C.3     1  <0>         0.0171
     20 C20        18.0131  -20.8453    3.3392 C.3     1  <0>         0.0297
     21 C21        17.1648  -22.1242    3.5061 C.3     1  <0>         0.0453
     22 C22        17.9242  -19.5399    1.2232 C.3     1  <0>         0.0520
     23 C23        16.5269  -22.6993    5.9120 C.3     1  <0>         0.0326
     24 C24        23.4037  -22.4349    0.4410 C.1     1  <0>         0.0992
     25 C25        13.5377  -24.2170    3.8809 C.ar    1  <0>        -0.0239
     26 C26        22.2381  -21.9989    0.7824 C.ar    1  <0>         0.0519
     27 C27        19.7134  -21.1008    1.5610 C.ar    1  <0>         0.0301
     28 C28        13.7983  -23.1911    4.7835 C.ar    1  <0>         0.1112
     29 C29        17.3749  -19.8625   -0.1325 C.2     1  <0>         0.0469
     30 C30        17.3775  -23.9605    5.8134 C.3     1  <0>        -0.0211
     31 C31        16.7009  -27.2526    7.7871 C.2     1  <0>         0.3553
     32 C32        14.9370  -29.0626    7.8507 C.3     1  <0>         0.0721
     33 N1         24.4440  -22.8714    0.1472 N.1     1  <0>        -0.1909
     34 N2         16.7660  -21.0241   -1.8247 N.2     1  <0>        -0.2463
     35 N3         16.9119  -18.9761   -1.0202 N.pl3   1  <0>        -0.2951
     36 N4         17.3847  -26.4978    7.0315 N.am    1  <0>        -0.2776
     37 N5         18.4115  -20.6915    1.9227 N.pl3   1  <0>        -0.3227
     38 N6         16.2530  -21.9370    4.6786 N.pl3   1  <0>        -0.2323
     39 O1         16.7789  -27.2716    9.0134 O.2     1  <0>        -0.2411
     40 O2         14.1885  -20.7866    5.3327 O.2     1  <0>        -0.1501
     41 O3         14.3549  -21.4453    2.9916 O.2     1  <0>        -0.1501
     42 O4         15.7934  -28.1644    7.1520 O.3     1  <0>        -0.2939
     43 S1         14.6338  -21.8536    4.3973 S.o2    1  <0>         0.0709
     44 H1         13.2628  -23.6562    1.8400 H       1  <0>         0.0278
     45 H2         14.9531  -23.5408    2.4347 H       1  <0>         0.0278
     46 H3         14.2298  -25.1488    2.0900 H       1  <0>         0.0278
     47 H4         16.3376  -30.6868    8.0475 H       1  <0>         0.0257
     48 H5         16.3288  -29.5341    9.4248 H       1  <0>         0.0257
     49 H6         14.9876  -30.7136    9.2325 H       1  <0>         0.0257
     50 H7         13.5102  -27.4968    8.1911 H       1  <0>         0.0257
     51 H8         13.3753  -28.8936    9.3116 H       1  <0>         0.0257
     52 H9         14.7165  -27.7141    9.5039 H       1  <0>         0.0257
     53 H10        13.5846  -29.1014    6.1741 H       1  <0>         0.0257
     54 H11        14.8323  -30.3933    6.1604 H       1  <0>         0.0257
     55 H12        13.4383  -30.5036    7.2868 H       1  <0>         0.0257
     56 H13        17.2195  -17.1966    0.0981 H       1  <0>         0.0432
     57 H14        17.4221  -17.0228   -1.6781 H       1  <0>         0.0432
     58 H15        15.7778  -17.1822   -0.9722 H       1  <0>         0.0432
     59 H16        11.8105  -26.3463    5.8799 H       1  <0>         0.0618
     60 H17        12.2227  -24.5161    7.4925 H       1  <0>         0.0618
     61 H18        12.6684  -26.1482    3.5722 H       1  <0>         0.0621
     62 H19        13.4747  -22.5154    6.7929 H       1  <0>         0.0637
     63 H20        21.9055  -20.8821   -1.0262 H       1  <0>         0.0631
     64 H21        22.2771  -23.0272    2.6601 H       1  <0>         0.0631
     65 H22        19.6616  -20.1050   -0.3425 H       1  <0>         0.0636
     66 H23        20.0300  -22.2698    3.3377 H       1  <0>         0.0636
     67 H24        17.5958  -22.0757   -0.0824 H       1  <0>         0.0846
     68 H25        16.0979  -19.3107   -2.9913 H       1  <0>         0.1002
     69 H26        16.4283  -25.0403    4.2065 H       1  <0>         0.0284
     70 H27        15.5753  -25.1431    5.7947 H       1  <0>         0.0284
     71 H28        16.9324  -24.0185    7.9026 H       1  <0>         0.0284
     72 H29        18.5962  -23.4333    7.4884 H       1  <0>         0.0284
     73 H30        16.6310  -27.3391    5.2267 H       1  <0>         0.0465
     74 H31        18.2154  -26.5620    5.0724 H       1  <0>         0.0465
     75 H32        19.3302  -25.6903    7.0204 H       1  <0>         0.0465
     76 H33        18.5230  -25.6973    8.6125 H       1  <0>         0.0465
     77 H34        17.4206  -19.9716    3.6485 H       1  <0>         0.0480
     78 H35        18.9138  -20.9204    3.9657 H       1  <0>         0.0480
     79 H36        16.5716  -22.2995    2.5969 H       1  <0>         0.0493
     80 H37        17.8227  -22.9881    3.6789 H       1  <0>         0.0493
     81 H38        18.7583  -18.8340    1.0981 H       1  <0>         0.0526
     82 H39        17.1197  -19.0879    1.8218 H       1  <0>         0.0526
     83 H40        15.5508  -23.0100    6.3122 H       1  <0>         0.0481
     84 H41        17.0566  -22.0160    6.5921 H       1  <0>         0.0481
     85 H42        18.2200  -23.8736    5.1104 H       1  <0>         0.0317
@<TRIPOS>BOND
     1    15    68    1
     2    15    34    2
     3    15    35    1
     4     5    57    1
     5    14    34    1
     6     5    35    1
     7    29    35    1
     8     5    58    1
     9     5    56    1
    10    10    63    1
    11    14    29    2
    12    14    67    1
    13    12    65    1
    14    22    29    1
    15    10    12   ar
    16    10    26   ar
    17    12    27   ar
    18    24    33    3
    19    22    81    1
    20    24    26    1
    21    22    82    1
    22    22    37    1
    23    11    26   ar
    24    27    37    1
    25    13    27   ar
    26    20    37    1
    27     1    44    1
    28    11    13   ar
    29    11    64    1
    30    21    79    1
    31    13    66    1
    32     1    46    1
    33     1    45    1
    34     1    25    1
    35    41    43    2
    36    20    21    1
    37    20    77    1
    38    20    78    1
    39    21    80    1
    40    21    38    1
    41    16    69    1
    42     8    25   ar
    43    25    28   ar
    44     8    61    1
    45    38    43    1
    46    28    43    1
    47    40    43    2
    48    23    38    1
    49    30    85    1
    50    18    74    1
    51     6     8   ar
    52     9    28   ar
    53    18    73    1
    54    16    18    1
    55    16    30    1
    56    16    70    1
    57    18    36    1
    58    23    30    1
    59    17    30    1
    60    23    83    1
    61    23    84    1
    62     6    59    1
    63     6     7   ar
    64     7     9   ar
    65     9    62    1
    66     4    54    1
    67    19    75    1
    68     4    53    1
    69    19    36    1
    70    31    36   am
    71     7    60    1
    72    17    72    1
    73    17    19    1
    74    17    71    1
    75     4    55    1
    76     4    32    1
    77    19    76    1
    78    31    42    1
    79    32    42    1
    80    31    39    2
    81     2    32    1
    82     3    32    1
    83     2    47    1
    84     3    50    1
    85     2    48    1
    86     2    49    1
    87     3    52    1
    88     3    51    1
@<TRIPOS>SUBSTRUCTURE
     1 <0>         1 TEMP              0 ****  ****    0 ROOT

