
##########                                Name:        NOC_434_1LI4
##########                    Molecular_Weight:             263.256
##########                DOCK_Rotatable_Bonds:                   4
##########                       Formal_Charge:        -0.000100121
##########                     HBond_Acceptors:                   8
##########                        HBond_Donors:                   4
##########                         Heavy_Atoms:                  19
##########                            HA_RMSDs:               0.461
##########                            HA_RMSDh:               0.461
##########                            HA_RMSDm:               0.461
##########                          Grid_Score:          -44.004318
##########                     Grid_vdw_energy:          -45.491257
##########                      Grid_es_energy:            1.486937
##########           Internal_energy_repulsive:            4.445352

@<TRIPOS>MOLECULE
NOC_434_1LI4
 32 34 1 0 0
SMALL
USER_CHARGES


@<TRIPOS>ATOM
      1 C1         48.9397  -22.5467  102.5306 C.ar    1  <0>         0.1203
      2 C2         46.8127  -19.2369  100.5248 C.2     1  <0>         0.0904
      3 C3         44.6019  -19.3645  102.9144 C.3     1  <0>        -0.0193
      4 C4         42.6447  -18.3620  104.0376 C.3     1  <0>         0.0538
      5 C5         48.1819  -20.8890  100.4908 C.ar    1  <0>         0.1448
      6 C6         49.1336  -21.9432  100.2331 C.ar    1  <0>         0.1469
      7 C7         47.6922  -20.7794  101.8335 C.ar    1  <0>         0.1572
      8 C8         44.0311  -18.4074  103.7266 C.3     1  <0>         0.0450
      9 C9         46.1027  -19.2560  102.9756 C.3     1  <0>         0.0643
     10 C10        46.2492  -17.7655  103.4833 C.3     1  <0>         0.1321
     11 C11        45.0421  -17.5215  104.3327 C.2     1  <0>         0.1686
     12 N1         49.6898  -22.1566   98.9980 N.pl3   1  <0>        -0.3413
     13 N2         49.4638  -22.7454  101.3369 N.ar    1  <0>        -0.2189
     14 N3         48.0464  -21.5969  102.8947 N.ar    1  <0>        -0.2181
     15 N4         47.5792  -19.8879   99.7208 N.2     1  <0>        -0.2332
     16 N5         46.8502  -19.7386  101.8247 N.pl3   1  <0>        -0.2682
     17 O1         42.2940  -19.5316  104.8536 O.3     1  <0>        -0.3943
     18 O2         47.4044  -17.5548  104.2804 O.3     1  <0>        -0.3824
     19 O3         44.8788  -16.4807  104.9244 O.2     1  <0>        -0.2942
     20 H1         49.2613  -23.2216  103.3101 H       1  <0>         0.1048
     21 H2         46.2071  -18.3945  100.2249 H       1  <0>         0.1003
     22 H3         44.2942  -20.3637  103.2562 H       1  <0>         0.0292
     23 H4         44.2671  -19.2102  101.8780 H       1  <0>         0.0292
     24 H5         42.4229  -17.4419  104.5982 H       1  <0>         0.0564
     25 H6         42.0580  -18.3728  103.1071 H       1  <0>         0.0564
     26 H7         43.0842  -17.9412  103.4168 H       1  <0>         0.0401
     27 H8         46.6144  -19.9627  103.6455 H       1  <0>         0.0534
     28 H9         46.3406  -17.0910  102.6192 H       1  <0>         0.0692
     29 H10        50.3205  -22.9312   99.0452 H       1  <0>         0.1438
     30 H11        48.9665  -22.3558   98.3368 H       1  <0>         0.1438
     31 H12        41.3731  -19.4933  105.0836 H       1  <0>         0.2094
     32 H13        47.1774  -17.0213  105.0330 H       1  <0>         0.2104
@<TRIPOS>BOND
     1     1    13   ar
     2     1    14   ar
     3     2    15    2
     4     2    16    1
     5     3     8    1
     6     3     9    1
     7     4     8    1
     8     4    17    1
     9     5     6   ar
    10     5     7   ar
    11     5    15    1
    12     6    12    1
    13     6    13   ar
    14     7    14   ar
    15     7    16    1
    16     8    11    1
    17     9    10    1
    18     9    16    1
    19    10    11    1
    20    10    18    1
    21    11    19    2
    22     1    20    1
    23     2    21    1
    24     3    22    1
    25     3    23    1
    26     4    24    1
    27     4    25    1
    28     8    26    1
    29     9    27    1
    30    10    28    1
    31    12    29    1
    32    12    30    1
    33    17    31    1
    34    18    32    1
@<TRIPOS>SUBSTRUCTURE
     1 <0>         1 TEMP              0 ****  ****    0 ROOT

