
##########                                Name:          443_1_3KL6
##########                    Molecular_Weight:             479.984
##########                DOCK_Rotatable_Bonds:                   7
##########                       Formal_Charge:        -9.99719e-05
##########                     HBond_Acceptors:                  10
##########                        HBond_Donors:                   2
##########                         Heavy_Atoms:                  32
##########                            HA_RMSDs:               0.193
##########                            HA_RMSDh:               0.193
##########                            HA_RMSDm:               0.193
##########                          Grid_Score:          -71.382439
##########                     Grid_vdw_energy:          -69.532333
##########                      Grid_es_energy:           -1.850107
##########           Internal_energy_repulsive:           24.117327

@<TRIPOS>MOLECULE
443_1_3KL6
 58 61 1 0 0
SMALL
USER_CHARGES


@<TRIPOS>ATOM
      1 C1          6.0765   -7.7222  -14.5551 C.ar    1  <0>        -0.0522
      2 C2          4.9327   -4.5333  -16.1032 C.ar    1  <0>        -0.0526
      3 C3          5.3479   -8.6179  -15.2674 C.ar    1  <0>        -0.0363
      4 C4          5.6646   -3.6363  -15.3767 C.ar    1  <0>        -0.0428
      5 C5          4.3162   -6.8676  -16.5645 C.ar    1  <0>        -0.0292
      6 C6          6.6827   -5.3975  -14.0979 C.ar    1  <0>        -0.0357
      7 C7         -0.4983   -9.0557   -7.5054 C.3     1  <0>        -0.0214
      8 C8         -1.5958  -10.0807  -11.6935 C.3     1  <0>        -0.0183
      9 C9          0.7459  -10.8638  -11.2493 C.3     1  <0>        -0.0183
     10 C10        -0.9303  -10.1658   -6.5397 C.3     1  <0>         0.0145
     11 C11         0.0969   -9.6676   -8.7783 C.3     1  <0>         0.0178
     12 C12        -1.5210  -10.6144  -13.1423 C.3     1  <0>         0.0164
     13 C13         0.8791  -11.3009  -12.7108 C.3     1  <0>         0.0164
     14 C14         1.8560   -9.2322  -16.4353 C.3     1  <0>         0.1052
     15 C15         5.0531   -5.9158  -15.8400 C.ar    1  <0>        -0.0160
     16 C16         5.9478   -6.3484  -14.8223 C.ar    1  <0>        -0.0164
     17 C17         4.4651   -8.1903  -16.2673 C.ar    1  <0>         0.0889
     18 C18         6.5425   -4.0639  -14.3581 C.ar    1  <0>         0.0416
     19 C19        -0.7192  -10.9838  -10.8082 C.3     1  <0>         0.0303
     20 C20        -1.6446  -11.3720   -8.5703 C.2     1  <0>         0.3025
     21 C21         1.7431   -9.9755  -15.1039 C.3     1  <0>         0.1506
     22 C22         0.2814   -9.9986  -14.7109 C.2     1  <0>         0.2458
     23 N1         -1.7416  -11.1597   -7.2444 N.am    1  <0>        -0.2992
     24 N2         -0.1035  -10.6054  -13.5636 N.am    1  <0>        -0.2992
     25 N3         -0.7944  -10.6861   -9.3651 N.am    1  <0>        -0.2824
     26 O1          2.4776   -9.2778  -14.0763 O.3     1  <0>        -0.3809
     27 O2         -2.3604  -12.2183   -9.0678 O.2     1  <0>        -0.2526
     28 O3         -0.5402   -9.4446  -15.4233 O.2     1  <0>        -0.2727
     29 O4          4.0816  -10.6336  -16.8901 O.2     1  <0>        -0.1693
     30 O5          3.4154   -8.8532  -18.4954 O.2     1  <0>        -0.1693
     31 S1          3.5047   -9.3520  -17.1648 S.o2    1  <0>        -0.0002
     32 Cl1         7.4538   -2.9093  -13.4307 Cl      1  <0>        -0.0835
     33 H1          6.7528   -8.0637  -13.7854 H       1  <0>         0.0624
     34 H2          4.2639   -4.1858  -16.8767 H       1  <0>         0.0624
     35 H3          5.4499   -9.6731  -15.0612 H       1  <0>         0.0637
     36 H4          5.5694   -2.5811  -15.5861 H       1  <0>         0.0632
     37 H5          3.6403   -6.5558  -17.3470 H       1  <0>         0.0643
     38 H6          7.3656   -5.7231  -13.3273 H       1  <0>         0.0638
     39 H7         -1.3737   -8.4450   -7.7714 H       1  <0>         0.0295
     40 H8          0.2591   -8.4246   -7.0176 H       1  <0>         0.0295
     41 H9         -1.2267   -9.0451  -11.6553 H       1  <0>         0.0298
     42 H10        -2.6366  -10.1028  -11.3384 H       1  <0>         0.0298
     43 H11         1.3729  -11.5086  -10.6159 H       1  <0>         0.0298
     44 H12         1.0742   -9.8189  -11.1484 H       1  <0>         0.0298
     45 H13        -0.0360  -10.6549   -6.1262 H       1  <0>         0.0463
     46 H14        -1.5231   -9.7263   -5.7238 H       1  <0>         0.0463
     47 H15         0.2510   -8.8664   -9.5161 H       1  <0>         0.0466
     48 H16         1.0568  -10.1421   -8.5261 H       1  <0>         0.0466
     49 H17        -1.9181  -11.6394  -13.1850 H       1  <0>         0.0465
     50 H18        -2.1144   -9.9720  -13.8095 H       1  <0>         0.0465
     51 H19         1.8925  -11.0606  -13.0646 H       1  <0>         0.0465
     52 H20         0.7050  -12.3851  -12.7766 H       1  <0>         0.0465
     53 H21         1.1324   -9.6692  -17.1392 H       1  <0>         0.0535
     54 H22         1.6304   -8.1699  -16.2600 H       1  <0>         0.0535
     55 H23        -1.1118  -12.0023  -10.9437 H       1  <0>         0.0502
     56 H24         2.1505  -10.9916  -15.2114 H       1  <0>         0.0707
     57 H25        -2.3956  -11.7038   -6.7188 H       1  <0>         0.1502
     58 H26         2.3515   -9.7164  -13.2431 H       1  <0>         0.2105
@<TRIPOS>BOND
     1     1     3   ar
     2     1    16   ar
     3     2     4   ar
     4     2    15   ar
     5     3    17   ar
     6     4    18   ar
     7     5    15   ar
     8     5    17   ar
     9     6    16   ar
    10     6    18   ar
    11     7    10    1
    12     7    11    1
    13     8    12    1
    14     8    19    1
    15     9    13    1
    16     9    19    1
    17    10    23    1
    18    11    25    1
    19    12    24    1
    20    13    24    1
    21    14    21    1
    22    14    31    1
    23    15    16   ar
    24    17    31    1
    25    18    32    1
    26    19    25    1
    27    20    23   am
    28    20    25   am
    29    20    27    2
    30    21    22    1
    31    21    26    1
    32    22    24   am
    33    22    28    2
    34    29    31    2
    35    30    31    2
    36     1    33    1
    37     2    34    1
    38     3    35    1
    39     4    36    1
    40     5    37    1
    41     6    38    1
    42     7    39    1
    43     7    40    1
    44     8    41    1
    45     8    42    1
    46     9    43    1
    47     9    44    1
    48    10    45    1
    49    10    46    1
    50    11    47    1
    51    11    48    1
    52    12    49    1
    53    12    50    1
    54    13    51    1
    55    13    52    1
    56    14    53    1
    57    14    54    1
    58    19    55    1
    59    21    56    1
    60    23    57    1
    61    26    58    1
@<TRIPOS>SUBSTRUCTURE
     1 <0>         1 TEMP              0 ****  ****    0 ROOT

