
##########                                Name:          443_1_3KL6
##########                    Molecular_Weight:             479.984
##########                DOCK_Rotatable_Bonds:                   7
##########                       Formal_Charge:        -9.99719e-05
##########                     HBond_Acceptors:                  10
##########                        HBond_Donors:                   2
##########                         Heavy_Atoms:                  32
##########                            HA_RMSDs:               0.393
##########                            HA_RMSDh:               0.393
##########                            HA_RMSDm:               0.393
##########                          Grid_Score:          -66.375854
##########                     Grid_vdw_energy:          -64.196388
##########                      Grid_es_energy:           -2.179462
##########           Internal_energy_repulsive:           22.945717

@<TRIPOS>MOLECULE
443_1_3KL6
 58 61 1 0 0
SMALL
USER_CHARGES


@<TRIPOS>ATOM
      1 C1          5.8233   -7.8290  -14.7569 C.ar    1  <0>        -0.0522
      2 C2          4.6360   -4.6602  -16.3137 C.ar    1  <0>        -0.0526
      3 C3          5.1060   -8.7364  -15.4658 C.ar    1  <0>        -0.0363
      4 C4          5.3566   -3.7514  -15.5906 C.ar    1  <0>        -0.0428
      5 C5          4.0501   -7.0039  -16.7673 C.ar    1  <0>        -0.0292
      6 C6          6.3990   -5.4951  -14.3074 C.ar    1  <0>        -0.0357
      7 C7         -0.6687   -9.1347   -7.5771 C.3     1  <0>        -0.0214
      8 C8         -1.5192  -10.6776  -11.6652 C.3     1  <0>        -0.0183
      9 C9          0.9387  -10.8832  -11.2063 C.3     1  <0>        -0.0183
     10 C10        -0.8493  -10.2403   -6.5299 C.3     1  <0>         0.0145
     11 C11         0.0465   -9.6920   -8.8128 C.3     1  <0>         0.0178
     12 C12        -1.3274  -11.2841  -13.0740 C.3     1  <0>         0.0164
     13 C13         1.1656  -11.3836  -12.6356 C.3     1  <0>         0.0164
     14 C14         1.6587   -9.4948  -16.5437 C.3     1  <0>         0.1052
     15 C15         4.7750   -6.0402  -16.0464 C.ar    1  <0>        -0.0160
     16 C16         5.6762   -6.4578  -15.0282 C.ar    1  <0>        -0.0164
     17 C17         4.2167   -8.3235  -16.4662 C.ar    1  <0>         0.0889
     18 C18         6.2409   -4.1642  -14.5715 C.ar    1  <0>         0.0416
     19 C19        -0.4621  -11.2956  -10.7335 C.3     1  <0>         0.0303
     20 C20        -1.2823  -11.7148   -8.4605 C.2     1  <0>         0.3025
     21 C21         1.7092  -10.0745  -15.1298 C.3     1  <0>         0.1506
     22 C22         0.2901  -10.3954  -14.7118 C.2     1  <0>         0.2458
     23 N1         -1.4242  -11.4345   -7.1514 N.am    1  <0>        -0.2992
     24 N2          0.0517  -10.9887  -13.5185 N.am    1  <0>        -0.2992
     25 N3         -0.6013  -10.9191   -9.3138 N.am    1  <0>        -0.2824
     26 O1          2.2440   -9.1017  -14.2079 O.3     1  <0>        -0.3809
     27 O2         -1.7963  -12.7297   -8.8869 O.2     1  <0>        -0.2526
     28 O3         -0.6352  -10.0920  -15.4475 O.2     1  <0>        -0.2727
     29 O4          3.9258  -10.7592  -17.1645 O.2     1  <0>        -0.1693
     30 O5          3.0871   -8.9588  -18.6631 O.2     1  <0>        -0.1693
     31 S1          3.2710   -9.5006  -17.3592 S.o2    1  <0>        -0.0002
     32 Cl1         7.1377   -2.9948  -13.6485 Cl      1  <0>        -0.0835
     33 H1          6.5048   -8.1591  -13.9868 H       1  <0>         0.0624
     34 H2          3.9620   -4.3240  -17.0877 H       1  <0>         0.0624
     35 H3          5.2221   -9.7895  -15.2565 H       1  <0>         0.0637
     36 H4          5.2472   -2.6982  -15.8031 H       1  <0>         0.0632
     37 H5          3.3694   -6.7034  -17.5502 H       1  <0>         0.0643
     38 H6          7.0869   -5.8092  -13.5364 H       1  <0>         0.0638
     39 H7         -1.6558   -8.7494   -7.8721 H       1  <0>         0.0295
     40 H8         -0.0673   -8.3210   -7.1458 H       1  <0>         0.0295
     41 H9         -1.3918   -9.5857  -11.7059 H       1  <0>         0.0298
     42 H10        -2.5284  -10.9063  -11.2921 H       1  <0>         0.0298
     43 H11         1.6946  -11.3241  -10.5398 H       1  <0>         0.0298
     44 H12         1.0243   -9.7867  -11.1844 H       1  <0>         0.0298
     45 H13         0.1297  -10.4927   -6.0966 H       1  <0>         0.0463
     46 H14        -1.5241   -9.8830   -5.7380 H       1  <0>         0.0463
     47 H15         0.0229   -8.9313   -9.6070 H       1  <0>         0.0466
     48 H16         1.0864   -9.9274   -8.5423 H       1  <0>         0.0466
     49 H17        -1.4847  -12.3722  -13.0382 H       1  <0>         0.0465
     50 H18        -2.0501  -10.8404  -13.7747 H       1  <0>         0.0465
     51 H19         2.0992  -10.9489  -13.0222 H       1  <0>         0.0465
     52 H20         1.2391  -12.4811  -12.6223 H       1  <0>         0.0465
     53 H21         0.9643  -10.1019  -17.1432 H       1  <0>         0.0535
     54 H22         1.3057   -8.4549  -16.4802 H       1  <0>         0.0535
     55 H23        -0.6163  -12.3832  -10.7907 H       1  <0>         0.0502
     56 H24         2.3478  -10.9701  -15.1194 H       1  <0>         0.0707
     57 H25        -1.9444  -12.0688   -6.5794 H       1  <0>         0.1502
     58 H26         2.2310   -9.4585  -13.3275 H       1  <0>         0.2105
@<TRIPOS>BOND
     1     1     3   ar
     2     1    16   ar
     3     2     4   ar
     4     2    15   ar
     5     3    17   ar
     6     4    18   ar
     7     5    15   ar
     8     5    17   ar
     9     6    16   ar
    10     6    18   ar
    11     7    10    1
    12     7    11    1
    13     8    12    1
    14     8    19    1
    15     9    13    1
    16     9    19    1
    17    10    23    1
    18    11    25    1
    19    12    24    1
    20    13    24    1
    21    14    21    1
    22    14    31    1
    23    15    16   ar
    24    17    31    1
    25    18    32    1
    26    19    25    1
    27    20    23   am
    28    20    25   am
    29    20    27    2
    30    21    22    1
    31    21    26    1
    32    22    24   am
    33    22    28    2
    34    29    31    2
    35    30    31    2
    36     1    33    1
    37     2    34    1
    38     3    35    1
    39     4    36    1
    40     5    37    1
    41     6    38    1
    42     7    39    1
    43     7    40    1
    44     8    41    1
    45     8    42    1
    46     9    43    1
    47     9    44    1
    48    10    45    1
    49    10    46    1
    50    11    47    1
    51    11    48    1
    52    12    49    1
    53    12    50    1
    54    13    51    1
    55    13    52    1
    56    14    53    1
    57    14    54    1
    58    19    55    1
    59    21    56    1
    60    23    57    1
    61    26    58    1
@<TRIPOS>SUBSTRUCTURE
     1 <0>         1 TEMP              0 ****  ****    0 ROOT

