
##########                                Name:          443_1_3KL6
##########                    Molecular_Weight:             479.984
##########                DOCK_Rotatable_Bonds:                   7
##########                       Formal_Charge:        -9.99719e-05
##########                     HBond_Acceptors:                  10
##########                        HBond_Donors:                   2
##########                         Heavy_Atoms:                  32
##########                            HA_RMSDs:               0.964
##########                            HA_RMSDh:               0.964
##########                            HA_RMSDm:               0.875
##########                          Grid_Score:          -67.747009
##########                     Grid_vdw_energy:          -66.121765
##########                      Grid_es_energy:           -1.625248
##########           Internal_energy_repulsive:           24.293381

@<TRIPOS>MOLECULE
443_1_3KL6
 58 61 1 0 0
SMALL
USER_CHARGES


@<TRIPOS>ATOM
      1 C1          5.4063   -8.4722  -15.1449 C.ar    1  <0>        -0.0522
      2 C2          4.2616   -5.2564  -16.6356 C.ar    1  <0>        -0.0526
      3 C3          4.6703   -9.3546  -15.8661 C.ar    1  <0>        -0.0363
      4 C4          5.0010   -4.3728  -15.9002 C.ar    1  <0>        -0.0428
      5 C5          3.6351   -7.5815  -17.1289 C.ar    1  <0>        -0.0292
      6 C6          6.0224   -6.1567  -14.6558 C.ar    1  <0>        -0.0357
      7 C7         -0.4441   -8.9652   -7.9241 C.3     1  <0>        -0.0214
      8 C8         -1.8561   -9.6881  -11.9715 C.3     1  <0>        -0.0183
      9 C9          0.1686  -11.1565  -11.7753 C.3     1  <0>        -0.0183
     10 C10        -0.6907  -10.0988   -6.9211 C.3     1  <0>         0.0145
     11 C11        -0.0700   -9.5454   -9.2925 C.3     1  <0>         0.0178
     12 C12        -2.1001  -10.1832  -13.4154 C.3     1  <0>         0.0164
     13 C13         0.0080  -11.5770  -13.2389 C.3     1  <0>         0.0164
     14 C14         1.1447   -9.8619  -17.0933 C.3     1  <0>         0.1052
     15 C15         4.3797   -6.6431  -16.3947 C.ar    1  <0>        -0.0160
     16 C16         5.2799   -7.0941  -15.3899 C.ar    1  <0>        -0.0164
     17 C17         3.7820   -8.9090  -16.8532 C.ar    1  <0>         0.0889
     18 C18         5.8844   -4.8188  -14.8943 C.ar    1  <0>         0.0416
     19 C19        -1.2086  -10.8366  -11.1781 C.3     1  <0>         0.0303
     20 C20        -1.7303  -11.2786   -8.8227 C.2     1  <0>         0.3025
     21 C21         0.9785  -10.5177  -15.7221 C.3     1  <0>         0.1506
     22 C22        -0.3709  -10.1053  -15.1739 C.2     1  <0>         0.2458
     23 N1         -1.6000  -11.0916   -7.4959 N.am    1  <0>        -0.2992
     24 N2         -0.7997  -10.5948  -13.9868 N.am    1  <0>        -0.2992
     25 N3         -1.0375  -10.5660   -9.7378 N.am    1  <0>        -0.2824
     26 O1          1.9984  -10.0489  -14.8152 O.3     1  <0>        -0.3809
     27 O2         -2.5114  -12.1262   -9.2068 O.2     1  <0>        -0.2526
     28 O3         -1.0547   -9.3104  -15.7985 O.2     1  <0>        -0.2727
     29 O4          3.3331  -11.3492  -17.4436 O.2     1  <0>        -0.1693
     30 O5          2.7865   -9.5787  -19.1041 O.2     1  <0>        -0.1693
     31 S1          2.8121  -10.0538  -17.7621 S.o2    1  <0>        -0.0002
     32 Cl1         6.8054   -3.6814  -13.9554 Cl      1  <0>        -0.0835
     33 H1          6.0867   -8.8275  -14.3852 H       1  <0>         0.0624
     34 H2          3.5887   -4.8950  -17.3991 H       1  <0>         0.0624
     35 H3          4.7705  -10.4132  -15.6770 H       1  <0>         0.0637
     36 H4          4.9075   -3.3142  -16.0926 H       1  <0>         0.0632
     37 H5          2.9549   -7.2555  -17.9019 H       1  <0>         0.0643
     38 H6          6.7096   -6.4962  -13.8950 H       1  <0>         0.0638
     39 H7         -1.3590   -8.3628   -8.0231 H       1  <0>         0.0295
     40 H8          0.3788   -8.3321   -7.5611 H       1  <0>         0.0295
     41 H9         -1.1872   -8.8149  -11.9820 H       1  <0>         0.0298
     42 H10        -2.8108   -9.4018  -11.5063 H       1  <0>         0.0298
     43 H11         0.6322  -11.9768  -11.2075 H       1  <0>         0.0298
     44 H12         0.8084  -10.2635  -11.7190 H       1  <0>         0.0298
     45 H13         0.2669  -10.5821   -6.6776 H       1  <0>         0.0463
     46 H14        -1.1391   -9.6828   -6.0068 H       1  <0>         0.0463
     47 H15        -0.0544   -8.7288  -10.0294 H       1  <0>         0.0466
     48 H16         0.9242  -10.0102   -9.2187 H       1  <0>         0.0466
     49 H17        -2.7928  -11.0377  -13.4065 H       1  <0>         0.0465
     50 H18        -2.5361   -9.3745  -14.0203 H       1  <0>         0.0465
     51 H19         1.0034  -11.6472  -13.7017 H       1  <0>         0.0465
     52 H20        -0.4941  -12.5550  -13.2764 H       1  <0>         0.0465
     53 H21         0.4348  -10.3309  -17.7906 H       1  <0>         0.0535
     54 H22         0.9329   -8.7872  -16.9920 H       1  <0>         0.0535
     55 H23        -1.9048  -11.6840  -11.2620 H       1  <0>         0.0502
     56 H24         1.0594  -11.6102  -15.8219 H       1  <0>         0.0707
     57 H25        -2.1474  -11.6547   -6.8768 H       1  <0>         0.1502
     58 H26         1.8005  -10.3456  -13.9347 H       1  <0>         0.2105
@<TRIPOS>BOND
     1     1     3   ar
     2     1    16   ar
     3     2     4   ar
     4     2    15   ar
     5     3    17   ar
     6     4    18   ar
     7     5    15   ar
     8     5    17   ar
     9     6    16   ar
    10     6    18   ar
    11     7    10    1
    12     7    11    1
    13     8    12    1
    14     8    19    1
    15     9    13    1
    16     9    19    1
    17    10    23    1
    18    11    25    1
    19    12    24    1
    20    13    24    1
    21    14    21    1
    22    14    31    1
    23    15    16   ar
    24    17    31    1
    25    18    32    1
    26    19    25    1
    27    20    23   am
    28    20    25   am
    29    20    27    2
    30    21    22    1
    31    21    26    1
    32    22    24   am
    33    22    28    2
    34    29    31    2
    35    30    31    2
    36     1    33    1
    37     2    34    1
    38     3    35    1
    39     4    36    1
    40     5    37    1
    41     6    38    1
    42     7    39    1
    43     7    40    1
    44     8    41    1
    45     8    42    1
    46     9    43    1
    47     9    44    1
    48    10    45    1
    49    10    46    1
    50    11    47    1
    51    11    48    1
    52    12    49    1
    53    12    50    1
    54    13    51    1
    55    13    52    1
    56    14    53    1
    57    14    54    1
    58    19    55    1
    59    21    56    1
    60    23    57    1
    61    26    58    1
@<TRIPOS>SUBSTRUCTURE
     1 <0>         1 TEMP              0 ****  ****    0 ROOT

