
##########                                Name:          443_1_3KL6
##########                    Molecular_Weight:             479.984
##########                DOCK_Rotatable_Bonds:                   7
##########                       Formal_Charge:        -9.99719e-05
##########                     HBond_Acceptors:                  10
##########                        HBond_Donors:                   2
##########                         Heavy_Atoms:                  32
##########                            HA_RMSDs:               0.469
##########                            HA_RMSDh:               0.469
##########                            HA_RMSDm:               0.469
##########                          Grid_Score:          -68.366989
##########                     Grid_vdw_energy:          -66.212471
##########                      Grid_es_energy:           -2.154520
##########           Internal_energy_repulsive:           31.848236

@<TRIPOS>MOLECULE
443_1_3KL6
 58 61 1 0 0
SMALL
USER_CHARGES


@<TRIPOS>ATOM
      1 C1          6.0141   -7.9046  -14.7492 C.ar    1  <0>        -0.0522
      2 C2          4.8788   -4.6356  -16.1273 C.ar    1  <0>        -0.0526
      3 C3          5.2786   -8.7594  -15.5034 C.ar    1  <0>        -0.0363
      4 C4          5.6178   -3.7802  -15.3590 C.ar    1  <0>        -0.0428
      5 C5          4.2497   -6.9406  -16.7048 C.ar    1  <0>        -0.0292
      6 C6          6.6329   -5.6090  -14.1764 C.ar    1  <0>        -0.0357
      7 C7         -0.6553   -8.8330   -7.7747 C.3     1  <0>        -0.0214
      8 C8         -1.2903  -10.8164  -11.7498 C.3     1  <0>        -0.0183
      9 C9          1.1563  -10.6669  -11.2152 C.3     1  <0>        -0.0183
     10 C10        -0.8670   -9.8636   -6.6591 C.3     1  <0>         0.0145
     11 C11         0.1485   -9.4561   -8.9213 C.3     1  <0>         0.0178
     12 C12        -0.9748  -11.5114  -13.0940 C.3     1  <0>         0.0164
     13 C13         1.4942  -11.2543  -12.5884 C.3     1  <0>         0.0164
     14 C14         1.8422   -9.4624  -16.5584 C.3     1  <0>         0.1052
     15 C15         4.9939   -6.0303  -15.9357 C.ar    1  <0>        -0.0160
     16 C16         5.8907   -6.5184  -14.9453 C.ar    1  <0>        -0.0164
     17 C17         4.3937   -8.2773  -16.4762 C.ar    1  <0>         0.0889
     18 C18         6.4978   -4.2632  -14.3674 C.ar    1  <0>         0.0416
     19 C19        -0.1977  -11.2128  -10.7415 C.3     1  <0>         0.0303
     20 C20        -1.1410  -11.4899   -8.4946 C.2     1  <0>         0.3025
     21 C21         1.9574  -10.1042  -15.1754 C.3     1  <0>         0.1506
     22 C22         0.5757  -10.5666  -14.7648 C.2     1  <0>         0.2458
     23 N1         -1.3693  -11.1186   -7.2208 N.am    1  <0>        -0.2992
     24 N2          0.3715  -11.0815  -13.5296 N.am    1  <0>        -0.2992
     25 N3         -0.4327  -10.7373   -9.3647 N.am    1  <0>        -0.2824
     26 O1          2.4164   -9.1352  -14.2097 O.3     1  <0>        -0.3809
     27 O2         -1.5993  -12.5498   -8.8722 O.2     1  <0>        -0.2526
     28 O3         -0.3538  -10.4476  -15.5468 O.2     1  <0>        -0.2727
     29 O4          4.0938  -10.6514  -17.3587 O.2     1  <0>        -0.1693
     30 O5          3.1904   -8.7439  -18.6763 O.2     1  <0>        -0.1693
     31 S1          3.4243   -9.3874  -17.4278 S.o2    1  <0>        -0.0002
     32 Cl1         7.4182   -3.1616  -13.3861 Cl      1  <0>        -0.0835
     33 H1          6.6920   -8.2879  -14.0010 H       1  <0>         0.0624
     34 H2          4.2085   -4.2461  -16.8792 H       1  <0>         0.0624
     35 H3          5.3765   -9.8242  -15.3518 H       1  <0>         0.0637
     36 H4          5.5265   -2.7152  -15.5138 H       1  <0>         0.0632
     37 H5          3.5721   -6.5861  -17.4674 H       1  <0>         0.0643
     38 H6          7.3174   -5.9766  -13.4263 H       1  <0>         0.0638
     39 H7         -1.6334   -8.5031   -8.1545 H       1  <0>         0.0295
     40 H8         -0.1042   -7.9704   -7.3720 H       1  <0>         0.0295
     41 H9         -1.2990   -9.7246  -11.8845 H       1  <0>         0.0298
     42 H10        -2.2755  -11.1392  -11.3823 H       1  <0>         0.0298
     43 H11         1.9375  -10.9493  -10.4940 H       1  <0>         0.0298
     44 H12         1.1035   -9.5707  -11.2890 H       1  <0>         0.0298
     45 H13         0.0909  -10.0510   -6.1520 H       1  <0>         0.0463
     46 H14        -1.5982   -9.4713   -5.9369 H       1  <0>         0.0463
     47 H15         0.1511   -8.7572   -9.7707 H       1  <0>         0.0466
     48 H16         1.1766   -9.6366   -8.5740 H       1  <0>         0.0466
     49 H17        -0.9960  -12.6036  -12.9651 H       1  <0>         0.0465
     50 H18        -1.7221  -11.2248  -13.8486 H       1  <0>         0.0465
     51 H19         2.3791  -10.7387  -12.9896 H       1  <0>         0.0465
     52 H20         1.7037  -12.3284  -12.4756 H       1  <0>         0.0465
     53 H21         1.1428  -10.0602  -17.1613 H       1  <0>         0.0535
     54 H22         1.4652   -8.4364  -16.4347 H       1  <0>         0.0535
     55 H23        -0.2127  -12.3120  -10.7053 H       1  <0>         0.0502
     56 H24         2.6707  -10.9407  -15.2137 H       1  <0>         0.0707
     57 H25        -1.9047  -11.7257   -6.6337 H       1  <0>         0.1502
     58 H26         2.4028   -9.5214  -13.3418 H       1  <0>         0.2105
@<TRIPOS>BOND
     1     1     3   ar
     2     1    16   ar
     3     2     4   ar
     4     2    15   ar
     5     3    17   ar
     6     4    18   ar
     7     5    15   ar
     8     5    17   ar
     9     6    16   ar
    10     6    18   ar
    11     7    10    1
    12     7    11    1
    13     8    12    1
    14     8    19    1
    15     9    13    1
    16     9    19    1
    17    10    23    1
    18    11    25    1
    19    12    24    1
    20    13    24    1
    21    14    21    1
    22    14    31    1
    23    15    16   ar
    24    17    31    1
    25    18    32    1
    26    19    25    1
    27    20    23   am
    28    20    25   am
    29    20    27    2
    30    21    22    1
    31    21    26    1
    32    22    24   am
    33    22    28    2
    34    29    31    2
    35    30    31    2
    36     1    33    1
    37     2    34    1
    38     3    35    1
    39     4    36    1
    40     5    37    1
    41     6    38    1
    42     7    39    1
    43     7    40    1
    44     8    41    1
    45     8    42    1
    46     9    43    1
    47     9    44    1
    48    10    45    1
    49    10    46    1
    50    11    47    1
    51    11    48    1
    52    12    49    1
    53    12    50    1
    54    13    51    1
    55    13    52    1
    56    14    53    1
    57    14    54    1
    58    19    55    1
    59    21    56    1
    60    23    57    1
    61    26    58    1
@<TRIPOS>SUBSTRUCTURE
     1 <0>         1 TEMP              0 ****  ****    0 ROOT

