
##########                                Name:          443_1_3KL6
##########                    Molecular_Weight:             479.984
##########                DOCK_Rotatable_Bonds:                   7
##########                       Formal_Charge:        -9.99719e-05
##########                     HBond_Acceptors:                  10
##########                        HBond_Donors:                   2
##########                         Heavy_Atoms:                  32
##########                            HA_RMSDs:               0.397
##########                            HA_RMSDh:               0.397
##########                            HA_RMSDm:               0.397
##########                          Grid_Score:          -71.388474
##########                     Grid_vdw_energy:          -69.749641
##########                      Grid_es_energy:           -1.638835
##########           Internal_energy_repulsive:           23.283466

@<TRIPOS>MOLECULE
443_1_3KL6
 58 61 1 0 0
SMALL
USER_CHARGES


@<TRIPOS>ATOM
      1 C1          5.7642   -7.7554  -14.7700 C.ar    1  <0>        -0.0522
      2 C2          4.6391   -4.5582  -16.3148 C.ar    1  <0>        -0.0526
      3 C3          5.0406   -8.6469  -15.4925 C.ar    1  <0>        -0.0363
      4 C4          5.3659   -3.6654  -15.5782 C.ar    1  <0>        -0.0428
      5 C5          4.0231   -6.8897  -16.7913 C.ar    1  <0>        -0.0292
      6 C6          6.3699   -5.4335  -14.2978 C.ar    1  <0>        -0.0357
      7 C7         -0.7174   -9.2997   -7.6964 C.3     1  <0>        -0.0214
      8 C8         -1.8198  -10.0322  -11.8850 C.3     1  <0>        -0.0183
      9 C9          0.4462  -11.0608  -11.5663 C.3     1  <0>        -0.0183
     10 C10        -1.0083  -10.4868   -6.7702 C.3     1  <0>         0.0145
     11 C11        -0.1622   -9.7998   -9.0345 C.3     1  <0>         0.0178
     12 C12        -1.8388  -10.4830  -13.3634 C.3     1  <0>         0.0164
     13 C13         0.4943  -11.4204  -13.0539 C.3     1  <0>         0.0164
     14 C14         1.5577   -9.2493  -16.6952 C.3     1  <0>         0.1052
     15 C15         4.7550   -5.9420  -16.0564 C.ar    1  <0>        -0.0160
     16 C16         5.6400   -6.3803  -15.0326 C.ar    1  <0>        -0.0164
     17 C17         4.1673   -8.2138  -16.4983 C.ar    1  <0>         0.0889
     18 C18         6.2340   -4.0986  -14.5536 C.ar    1  <0>         0.0416
     19 C19        -1.0105  -11.0662  -11.0828 C.3     1  <0>         0.0303
     20 C20        -1.7630  -11.6362   -8.8192 C.2     1  <0>         0.3025
     21 C21         1.4146  -10.0429  -15.3961 C.3     1  <0>         0.1506
     22 C22        -0.0305   -9.9496  -14.9552 C.2     1  <0>         0.2458
     23 N1         -1.7907  -11.5001   -7.4801 N.am    1  <0>        -0.2992
     24 N2         -0.4398  -10.5844  -13.8317 N.am    1  <0>        -0.2992
     25 N3         -1.0150  -10.8495   -9.6234 N.am    1  <0>        -0.2824
     26 O1          2.2415   -9.4671  -14.3632 O.3     1  <0>        -0.3809
     27 O2         -2.4474  -12.5062   -9.3198 O.2     1  <0>        -0.2526
     28 O3         -0.8143   -9.2780  -15.6066 O.2     1  <0>        -0.2727
     29 O4          3.7845  -10.6540  -17.1333 O.2     1  <0>        -0.1693
     30 O5          3.1377   -8.8666  -18.7387 O.2     1  <0>        -0.1693
     31 S1          3.2131   -9.3702  -17.4091 S.o2    1  <0>        -0.0002
     32 Cl1         7.1389   -2.9494  -13.6134 Cl      1  <0>        -0.0835
     33 H1          6.4332   -8.1011  -13.9958 H       1  <0>         0.0624
     34 H2          3.9777   -4.2065  -17.0928 H       1  <0>         0.0624
     35 H3          5.1391   -9.7031  -15.2898 H       1  <0>         0.0637
     36 H4          5.2741   -2.6092  -15.7840 H       1  <0>         0.0632
     37 H5          3.3546   -6.5735  -17.5785 H       1  <0>         0.0643
     38 H6          7.0455   -5.7634  -13.5225 H       1  <0>         0.0638
     39 H7         -1.6486   -8.7422   -7.8753 H       1  <0>         0.0295
     40 H8          0.0231   -8.6405   -7.2198 H       1  <0>         0.0295
     41 H9         -1.3507   -9.0407  -11.8007 H       1  <0>         0.0298
     42 H10        -2.8473   -9.9759  -11.4963 H       1  <0>         0.0298
     43 H11         1.0252  -11.7992  -10.9923 H       1  <0>         0.0298
     44 H12         0.8775  -10.0598  -11.4175 H       1  <0>         0.0298
     45 H13        -0.0575  -10.9294   -6.4385 H       1  <0>         0.0463
     46 H14        -1.5777  -10.1347   -5.8974 H       1  <0>         0.0463
     47 H15        -0.1119   -8.9525   -9.7342 H       1  <0>         0.0466
     48 H16         0.8426  -10.2146   -8.8666 H       1  <0>         0.0466
     49 H17        -2.3350  -11.4609  -13.4506 H       1  <0>         0.0465
     50 H18        -2.3856   -9.7480  -13.9724 H       1  <0>         0.0465
     51 H19         1.5158  -11.2573  -13.4280 H       1  <0>         0.0465
     52 H20         0.2136  -12.4771  -13.1752 H       1  <0>         0.0465
     53 H21         0.8354   -9.6445  -17.4247 H       1  <0>         0.0535
     54 H22         1.3489   -8.1909  -16.4802 H       1  <0>         0.0535
     55 H23        -1.5042  -12.0327  -11.2624 H       1  <0>         0.0502
     56 H24         1.7213  -11.0860  -15.5637 H       1  <0>         0.0707
     57 H25        -2.3702  -12.1173   -6.9478 H       1  <0>         0.1502
     58 H26         2.1737   -9.9913  -13.5737 H       1  <0>         0.2105
@<TRIPOS>BOND
     1     1     3   ar
     2     1    16   ar
     3     2     4   ar
     4     2    15   ar
     5     3    17   ar
     6     4    18   ar
     7     5    15   ar
     8     5    17   ar
     9     6    16   ar
    10     6    18   ar
    11     7    10    1
    12     7    11    1
    13     8    12    1
    14     8    19    1
    15     9    13    1
    16     9    19    1
    17    10    23    1
    18    11    25    1
    19    12    24    1
    20    13    24    1
    21    14    21    1
    22    14    31    1
    23    15    16   ar
    24    17    31    1
    25    18    32    1
    26    19    25    1
    27    20    23   am
    28    20    25   am
    29    20    27    2
    30    21    22    1
    31    21    26    1
    32    22    24   am
    33    22    28    2
    34    29    31    2
    35    30    31    2
    36     1    33    1
    37     2    34    1
    38     3    35    1
    39     4    36    1
    40     5    37    1
    41     6    38    1
    42     7    39    1
    43     7    40    1
    44     8    41    1
    45     8    42    1
    46     9    43    1
    47     9    44    1
    48    10    45    1
    49    10    46    1
    50    11    47    1
    51    11    48    1
    52    12    49    1
    53    12    50    1
    54    13    51    1
    55    13    52    1
    56    14    53    1
    57    14    54    1
    58    19    55    1
    59    21    56    1
    60    23    57    1
    61    26    58    1
@<TRIPOS>SUBSTRUCTURE
     1 <0>         1 TEMP              0 ****  ****    0 ROOT

