
##########                                Name:          443_1_3KL6
##########                    Molecular_Weight:             479.984
##########                DOCK_Rotatable_Bonds:                   7
##########                       Formal_Charge:        -9.99719e-05
##########                     HBond_Acceptors:                  10
##########                        HBond_Donors:                   2
##########                         Heavy_Atoms:                  32
##########                            HA_RMSDs:               0.464
##########                            HA_RMSDh:               0.464
##########                            HA_RMSDm:               0.464
##########                          Grid_Score:          -68.728363
##########                     Grid_vdw_energy:          -66.533691
##########                      Grid_es_energy:           -2.194670
##########           Internal_energy_repulsive:           21.243931

@<TRIPOS>MOLECULE
443_1_3KL6
 58 61 1 0 0
SMALL
USER_CHARGES


@<TRIPOS>ATOM
      1 C1          5.8370   -7.9552  -14.9246 C.ar    1  <0>        -0.0522
      2 C2          4.2754   -4.8587  -16.2839 C.ar    1  <0>        -0.0526
      3 C3          5.1417   -8.9013  -15.6041 C.ar    1  <0>        -0.0363
      4 C4          4.9751   -3.9112  -15.5905 C.ar    1  <0>        -0.0428
      5 C5          3.8478   -7.2311  -16.7645 C.ar    1  <0>        -0.0292
      6 C6          6.2550   -5.5933  -14.4476 C.ar    1  <0>        -0.0357
      7 C7         -0.4524   -9.0315   -7.5666 C.3     1  <0>        -0.0214
      8 C8         -1.6487  -10.2905  -11.6604 C.3     1  <0>        -0.0183
      9 C9          0.7353  -10.9663  -11.2683 C.3     1  <0>        -0.0183
     10 C10        -0.7990  -10.1128   -6.5360 C.3     1  <0>         0.0145
     11 C11         0.1226   -9.6760   -8.8327 C.3     1  <0>         0.0178
     12 C12        -1.6047  -10.8876  -13.0855 C.3     1  <0>         0.0164
     13 C13         0.8334  -11.4654  -12.7126 C.3     1  <0>         0.0164
     14 C14         1.5837   -9.7011  -16.6306 C.3     1  <0>         0.1052
     15 C15         4.5471   -6.2286  -16.0719 C.ar    1  <0>        -0.0160
     16 C16         5.5577   -6.5947  -15.1402 C.ar    1  <0>        -0.0164
     17 C17         4.1447   -8.5393  -16.5190 C.ar    1  <0>         0.0889
     18 C18         5.9686   -4.2741  -14.6565 C.ar    1  <0>         0.0416
     19 C19        -0.7078  -11.1191  -10.7684 C.3     1  <0>         0.0303
     20 C20        -1.5326  -11.4418   -8.4813 C.2     1  <0>         0.3025
     21 C21         1.5615  -10.2214  -15.1930 C.3     1  <0>         0.1506
     22 C22         0.1165  -10.2796  -14.7457 C.2     1  <0>         0.2458
     23 N1         -1.5905  -11.1723   -7.1636 N.am    1  <0>        -0.2992
     24 N2         -0.2043  -10.8463  -13.5589 N.am    1  <0>        -0.2992
     25 N3         -0.7434  -10.7580   -9.3383 N.am    1  <0>        -0.2824
     26 O1          2.2696   -9.3156  -14.3210 O.3     1  <0>        -0.3809
     27 O2         -2.2277  -12.3403   -8.9123 O.2     1  <0>        -0.2526
     28 O3         -0.7503   -9.7894  -15.4514 O.2     1  <0>        -0.2727
     29 O4          3.8658  -11.0146  -17.0669 O.2     1  <0>        -0.1693
     30 O5          3.1064   -9.3136  -18.7163 O.2     1  <0>        -0.1693
     31 S1          3.2296   -9.7686  -17.3728 S.o2    1  <0>        -0.0002
     32 Cl1         6.8381   -3.0574  -13.7693 Cl      1  <0>        -0.0835
     33 H1          6.6024   -8.2463  -14.2204 H       1  <0>         0.0624
     34 H2          3.5167   -4.5607  -16.9923 H       1  <0>         0.0624
     35 H3          5.3594   -9.9459  -15.4377 H       1  <0>         0.0637
     36 H4          4.7637   -2.8659  -15.7605 H       1  <0>         0.0632
     37 H5          3.0846   -6.9691  -17.4824 H       1  <0>         0.0643
     38 H6          7.0255   -5.8681  -13.7425 H       1  <0>         0.0638
     39 H7         -1.3632   -8.4719   -7.8259 H       1  <0>         0.0295
     40 H8          0.2934   -8.3465   -7.1372 H       1  <0>         0.0295
     41 H9         -1.3184   -9.2415  -11.6824 H       1  <0>         0.0298
     42 H10        -2.6748  -10.3341  -11.2665 H       1  <0>         0.0298
     43 H11         1.4084  -11.5578  -10.6301 H       1  <0>         0.0298
     44 H12         1.0269   -9.9065  -11.2266 H       1  <0>         0.0298
     45 H13         0.1306  -10.5434   -6.1357 H       1  <0>         0.0463
     46 H14        -1.3806   -9.6615   -5.7186 H       1  <0>         0.0463
     47 H15         0.2138   -8.9042   -9.6112 H       1  <0>         0.0466
     48 H16         1.1112  -10.0967   -8.5965 H       1  <0>         0.0466
     49 H17        -1.9638  -11.9272  -13.0675 H       1  <0>         0.0465
     50 H18        -2.2453  -10.2987  -13.7585 H       1  <0>         0.0465
     51 H19         1.8239  -11.2049  -13.1140 H       1  <0>         0.0465
     52 H20         0.6986  -12.5571  -12.7232 H       1  <0>         0.0465
     53 H21         0.9049  -10.3211  -17.2346 H       1  <0>         0.0535
     54 H22         1.2478   -8.6536  -16.6259 H       1  <0>         0.0535
     55 H23        -1.0658  -12.1565  -10.8434 H       1  <0>         0.0502
     56 H24         2.0398  -11.2110  -15.1500 H       1  <0>         0.0707
     57 H25        -2.2000  -11.7188   -6.5893 H       1  <0>         0.1502
     58 H26         2.1179   -9.5628  -13.4163 H       1  <0>         0.2105
@<TRIPOS>BOND
     1     1     3   ar
     2     1    16   ar
     3     2     4   ar
     4     2    15   ar
     5     3    17   ar
     6     4    18   ar
     7     5    15   ar
     8     5    17   ar
     9     6    16   ar
    10     6    18   ar
    11     7    10    1
    12     7    11    1
    13     8    12    1
    14     8    19    1
    15     9    13    1
    16     9    19    1
    17    10    23    1
    18    11    25    1
    19    12    24    1
    20    13    24    1
    21    14    21    1
    22    14    31    1
    23    15    16   ar
    24    17    31    1
    25    18    32    1
    26    19    25    1
    27    20    23   am
    28    20    25   am
    29    20    27    2
    30    21    22    1
    31    21    26    1
    32    22    24   am
    33    22    28    2
    34    29    31    2
    35    30    31    2
    36     1    33    1
    37     2    34    1
    38     3    35    1
    39     4    36    1
    40     5    37    1
    41     6    38    1
    42     7    39    1
    43     7    40    1
    44     8    41    1
    45     8    42    1
    46     9    43    1
    47     9    44    1
    48    10    45    1
    49    10    46    1
    50    11    47    1
    51    11    48    1
    52    12    49    1
    53    12    50    1
    54    13    51    1
    55    13    52    1
    56    14    53    1
    57    14    54    1
    58    19    55    1
    59    21    56    1
    60    23    57    1
    61    26    58    1
@<TRIPOS>SUBSTRUCTURE
     1 <0>         1 TEMP              0 ****  ****    0 ROOT

