
##########                                Name:          443_1_3KL6
##########                    Molecular_Weight:             479.984
##########                DOCK_Rotatable_Bonds:                   7
##########                       Formal_Charge:        -9.99719e-05
##########                     HBond_Acceptors:                  10
##########                        HBond_Donors:                   2
##########                         Heavy_Atoms:                  32
##########                            HA_RMSDs:               0.524
##########                            HA_RMSDh:               0.524
##########                            HA_RMSDm:               0.524
##########                          Grid_Score:          -71.443298
##########                     Grid_vdw_energy:          -69.184113
##########                      Grid_es_energy:           -2.259185
##########           Internal_energy_repulsive:           21.152216

@<TRIPOS>MOLECULE
443_1_3KL6
 58 61 1 0 0
SMALL
USER_CHARGES


@<TRIPOS>ATOM
      1 C1          5.7493   -8.1541  -14.7798 C.ar    1  <0>        -0.0522
      2 C2          4.5837   -4.9971  -16.3764 C.ar    1  <0>        -0.0526
      3 C3          5.0146   -9.0643  -15.4669 C.ar    1  <0>        -0.0363
      4 C4          5.3220   -4.0852  -15.6752 C.ar    1  <0>        -0.0428
      5 C5          3.9661   -7.3407  -16.7861 C.ar    1  <0>        -0.0292
      6 C6          6.3566   -5.8202  -14.3740 C.ar    1  <0>        -0.0357
      7 C7         -0.6643   -9.0199   -7.5173 C.3     1  <0>        -0.0214
      8 C8         -1.7229  -10.3017  -11.6038 C.3     1  <0>        -0.0183
      9 C9          0.6605  -10.9784  -11.2090 C.3     1  <0>        -0.0183
     10 C10        -0.8739  -10.1281   -6.4783 C.3     1  <0>         0.0145
     11 C11        -0.0575   -9.6061   -8.7968 C.3     1  <0>         0.0178
     12 C12        -1.6770  -10.8972  -13.0294 C.3     1  <0>         0.0164
     13 C13         0.7606  -11.4759  -12.6538 C.3     1  <0>         0.0164
     14 C14         1.5157   -9.7184  -16.5728 C.3     1  <0>         0.1052
     15 C15         4.7092   -6.3741  -16.0880 C.ar    1  <0>        -0.0160
     16 C16         5.6156   -6.7859  -15.0720 C.ar    1  <0>        -0.0164
     17 C17         4.1202   -8.6572  -16.4651 C.ar    1  <0>         0.0889
     18 C18         6.2115   -4.4920  -14.6582 C.ar    1  <0>         0.0416
     19 C19        -0.7833  -11.1315  -10.7113 C.3     1  <0>         0.0303
     20 C20        -1.5153  -11.5302   -8.4048 C.2     1  <0>         0.3025
     21 C21         1.4922  -10.2292  -15.1318 C.3     1  <0>         0.1506
     22 C22         0.0466  -10.2877  -14.6865 C.2     1  <0>         0.2458
     23 N1         -1.5684  -11.2643   -7.0861 N.am    1  <0>        -0.2992
     24 N2         -0.2759  -10.8557  -13.5008 N.am    1  <0>        -0.2992
     25 N3         -0.8208  -10.7719   -9.2809 N.am    1  <0>        -0.2824
     26 O1          2.1969   -9.3162  -14.2646 O.3     1  <0>        -0.3809
     27 O2         -2.1256  -12.4959   -8.8184 O.2     1  <0>        -0.2526
     28 O3         -0.8191   -9.7966  -15.3930 O.2     1  <0>        -0.2727
     29 O4          3.7424  -11.1112  -17.0480 O.2     1  <0>        -0.1693
     30 O5          3.0359   -9.3573  -18.6651 O.2     1  <0>        -0.1693
     31 S1          3.1520   -9.8373  -17.3297 S.o2    1  <0>        -0.0002
     32 Cl1         7.1309   -3.3185  -13.7631 Cl      1  <0>        -0.0835
     33 H1          6.4345   -8.4797  -14.0111 H       1  <0>         0.0624
     34 H2          3.9061   -4.6655  -17.1492 H       1  <0>         0.0624
     35 H3          5.1204  -10.1152  -15.2415 H       1  <0>         0.0637
     36 H4          5.2228   -3.0344  -15.9038 H       1  <0>         0.0632
     37 H5          3.2812   -7.0449  -17.5671 H       1  <0>         0.0643
     38 H6          7.0484   -6.1300  -13.6047 H       1  <0>         0.0638
     39 H7         -1.6334   -8.5566   -7.7544 H       1  <0>         0.0295
     40 H8          0.0181   -8.2614   -7.1064 H       1  <0>         0.0295
     41 H9         -1.3923   -9.2527  -11.6241 H       1  <0>         0.0298
     42 H10        -2.7495  -10.3456  -11.2113 H       1  <0>         0.0298
     43 H11         1.3326  -11.5707  -10.5706 H       1  <0>         0.0298
     44 H12         0.9522   -9.9187  -11.1658 H       1  <0>         0.0298
     45 H13         0.1042  -10.4607   -6.1006 H       1  <0>         0.0463
     46 H14        -1.4784   -9.7361   -5.6470 H       1  <0>         0.0463
     47 H15        -0.0643   -8.8311   -9.5775 H       1  <0>         0.0466
     48 H16         0.9742   -9.9233   -8.5848 H       1  <0>         0.0466
     49 H17        -2.0362  -11.9368  -13.0131 H       1  <0>         0.0465
     50 H18        -2.3165  -10.3075  -13.7027 H       1  <0>         0.0465
     51 H19         1.7516  -11.2151  -13.0535 H       1  <0>         0.0465
     52 H20         0.6256  -12.5675  -12.6657 H       1  <0>         0.0465
     53 H21         0.8139  -10.3224  -17.1666 H       1  <0>         0.0535
     54 H22         1.2099   -8.6617  -16.5715 H       1  <0>         0.0535
     55 H23        -1.1413  -12.1687  -10.7880 H       1  <0>         0.0502
     56 H24         1.9727  -11.2175  -15.0815 H       1  <0>         0.0707
     57 H25        -2.1049  -11.8685   -6.4969 H       1  <0>         0.1502
     58 H26         2.5363   -9.7897  -13.5142 H       1  <0>         0.2105
@<TRIPOS>BOND
     1     1     3   ar
     2     1    16   ar
     3     2     4   ar
     4     2    15   ar
     5     3    17   ar
     6     4    18   ar
     7     5    15   ar
     8     5    17   ar
     9     6    16   ar
    10     6    18   ar
    11     7    10    1
    12     7    11    1
    13     8    12    1
    14     8    19    1
    15     9    13    1
    16     9    19    1
    17    10    23    1
    18    11    25    1
    19    12    24    1
    20    13    24    1
    21    14    21    1
    22    14    31    1
    23    15    16   ar
    24    17    31    1
    25    18    32    1
    26    19    25    1
    27    20    23   am
    28    20    25   am
    29    20    27    2
    30    21    22    1
    31    21    26    1
    32    22    24   am
    33    22    28    2
    34    29    31    2
    35    30    31    2
    36     1    33    1
    37     2    34    1
    38     3    35    1
    39     4    36    1
    40     5    37    1
    41     6    38    1
    42     7    39    1
    43     7    40    1
    44     8    41    1
    45     8    42    1
    46     9    43    1
    47     9    44    1
    48    10    45    1
    49    10    46    1
    50    11    47    1
    51    11    48    1
    52    12    49    1
    53    12    50    1
    54    13    51    1
    55    13    52    1
    56    14    53    1
    57    14    54    1
    58    19    55    1
    59    21    56    1
    60    23    57    1
    61    26    58    1
@<TRIPOS>SUBSTRUCTURE
     1 <0>         1 TEMP              0 ****  ****    0 ROOT

