
##########                                Name:          443_1_3KL6
##########                    Molecular_Weight:             479.984
##########                DOCK_Rotatable_Bonds:                   7
##########                       Formal_Charge:        -9.99719e-05
##########                     HBond_Acceptors:                  10
##########                        HBond_Donors:                   2
##########                         Heavy_Atoms:                  32
##########                            HA_RMSDs:               0.421
##########                            HA_RMSDh:               0.421
##########                            HA_RMSDm:               0.421
##########                          Grid_Score:          -72.372711
##########                     Grid_vdw_energy:          -70.236099
##########                      Grid_es_energy:           -2.136616
##########           Internal_energy_repulsive:           23.368277

@<TRIPOS>MOLECULE
443_1_3KL6
 58 61 1 0 0
SMALL
USER_CHARGES


@<TRIPOS>ATOM
      1 C1          5.8115   -7.9979  -14.8538 C.ar    1  <0>        -0.0522
      2 C2          4.5239   -4.8167  -16.3017 C.ar    1  <0>        -0.0526
      3 C3          5.0810   -8.9015  -15.5540 C.ar    1  <0>        -0.0363
      4 C4          5.2582   -3.9119  -15.5874 C.ar    1  <0>        -0.0428
      5 C5          3.9538   -7.1593  -16.7805 C.ar    1  <0>        -0.0292
      6 C6          6.3714   -5.6652  -14.3788 C.ar    1  <0>        -0.0357
      7 C7         -0.7322   -8.9227   -7.6652 C.3     1  <0>        -0.0214
      8 C8         -1.7317  -10.2866  -11.7416 C.3     1  <0>        -0.0183
      9 C9          0.6602  -10.9113  -11.3134 C.3     1  <0>        -0.0183
     10 C10        -0.9373  -10.0177   -6.6115 C.3     1  <0>         0.0145
     11 C11        -0.1029   -9.5194   -8.9288 C.3     1  <0>         0.0178
     12 C12        -1.6603  -10.9031  -13.1573 C.3     1  <0>         0.0164
     13 C13         0.7840  -11.4289  -12.7492 C.3     1  <0>         0.0164
     14 C14         1.5543   -9.5649  -16.6264 C.3     1  <0>         0.1052
     15 C15         4.6916   -6.1996  -16.0675 C.ar    1  <0>        -0.0160
     16 C16         5.6356   -6.6240  -15.0918 C.ar    1  <0>        -0.0164
     17 C17         4.1496   -8.4821  -16.5124 C.ar    1  <0>         0.0889
     18 C18         6.1854   -4.3318  -14.6101 C.ar    1  <0>         0.0416
     19 C19        -0.7853  -11.0844  -10.8273 C.3     1  <0>         0.0303
     20 C20        -1.5371  -11.4584   -8.5229 C.2     1  <0>         0.3025
     21 C21         1.5163  -10.2069  -15.2392 C.3     1  <0>         0.1506
     22 C22         0.0678  -10.2862  -14.8070 C.2     1  <0>         0.2458
     23 N1         -1.6086  -11.1732   -7.2091 N.am    1  <0>        -0.2992
     24 N2         -0.2556  -10.8419  -13.6157 N.am    1  <0>        -0.2992
     25 N3         -0.8439  -10.7035   -9.4031 N.am    1  <0>        -0.2824
     26 O1          2.2288   -9.3882  -14.2882 O.3     1  <0>        -0.3809
     27 O2         -2.1287  -12.4391   -8.9282 O.2     1  <0>        -0.2526
     28 O3         -0.8001   -9.8228  -15.5293 O.2     1  <0>        -0.2727
     29 O4          3.7910  -10.9284  -17.1382 O.2     1  <0>        -0.1693
     30 O5          3.0602   -9.1516  -18.7194 O.2     1  <0>        -0.1693
     31 S1          3.1877   -9.6550  -17.3936 S.o2    1  <0>        -0.0002
     32 Cl1         7.0996   -3.1680  -13.6973 Cl      1  <0>        -0.0835
     33 H1          6.5256   -8.3332  -14.1161 H       1  <0>         0.0624
     34 H2          3.8170   -4.4752  -17.0434 H       1  <0>         0.0624
     35 H3          5.2193   -9.9568  -15.3703 H       1  <0>         0.0637
     36 H4          5.1265   -2.8564  -15.7745 H       1  <0>         0.0632
     37 H5          3.2405   -6.8534  -17.5316 H       1  <0>         0.0643
     38 H6          7.0917   -5.9845  -13.6402 H       1  <0>         0.0638
     39 H7         -1.7051   -8.4772   -7.9199 H       1  <0>         0.0295
     40 H8         -0.0653   -8.1481   -7.2586 H       1  <0>         0.0295
     41 H9         -1.4209   -9.2319  -11.7751 H       1  <0>         0.0298
     42 H10        -2.7611  -10.3442  -11.3584 H       1  <0>         0.0298
     43 H11         1.3370  -11.4806  -10.6594 H       1  <0>         0.0298
     44 H12         0.9312   -9.8456  -11.2839 H       1  <0>         0.0298
     45 H13         0.0412  -10.3303   -6.2182 H       1  <0>         0.0463
     46 H14        -1.5566   -9.6220   -5.7930 H       1  <0>         0.0463
     47 H15        -0.1121   -8.7567   -9.7214 H       1  <0>         0.0466
     48 H16         0.9309   -9.8183   -8.7007 H       1  <0>         0.0466
     49 H17        -1.9998  -11.9490  -13.1281 H       1  <0>         0.0465
     50 H18        -2.3043  -10.3363  -13.8458 H       1  <0>         0.0465
     51 H19         1.7738  -11.1554  -13.1434 H       1  <0>         0.0465
     52 H20         0.6699  -12.5230  -12.7454 H       1  <0>         0.0465
     53 H21         0.8376  -10.0927  -17.2728 H       1  <0>         0.0535
     54 H22         1.2758   -8.5054  -16.5263 H       1  <0>         0.0535
     55 H23        -1.1228  -12.1293  -10.8912 H       1  <0>         0.0502
     56 H24         1.9831  -11.2022  -15.2790 H       1  <0>         0.0707
     57 H25        -2.1429  -11.7760   -6.6166 H       1  <0>         0.1502
     58 H26         2.1895   -9.7927  -13.4295 H       1  <0>         0.2105
@<TRIPOS>BOND
     1     1     3   ar
     2     1    16   ar
     3     2     4   ar
     4     2    15   ar
     5     3    17   ar
     6     4    18   ar
     7     5    15   ar
     8     5    17   ar
     9     6    16   ar
    10     6    18   ar
    11     7    10    1
    12     7    11    1
    13     8    12    1
    14     8    19    1
    15     9    13    1
    16     9    19    1
    17    10    23    1
    18    11    25    1
    19    12    24    1
    20    13    24    1
    21    14    21    1
    22    14    31    1
    23    15    16   ar
    24    17    31    1
    25    18    32    1
    26    19    25    1
    27    20    23   am
    28    20    25   am
    29    20    27    2
    30    21    22    1
    31    21    26    1
    32    22    24   am
    33    22    28    2
    34    29    31    2
    35    30    31    2
    36     1    33    1
    37     2    34    1
    38     3    35    1
    39     4    36    1
    40     5    37    1
    41     6    38    1
    42     7    39    1
    43     7    40    1
    44     8    41    1
    45     8    42    1
    46     9    43    1
    47     9    44    1
    48    10    45    1
    49    10    46    1
    50    11    47    1
    51    11    48    1
    52    12    49    1
    53    12    50    1
    54    13    51    1
    55    13    52    1
    56    14    53    1
    57    14    54    1
    58    19    55    1
    59    21    56    1
    60    23    57    1
    61    26    58    1
@<TRIPOS>SUBSTRUCTURE
     1 <0>         1 TEMP              0 ****  ****    0 ROOT

