
##########                                Name:          443_1_3KL6
##########                    Molecular_Weight:             479.984
##########                DOCK_Rotatable_Bonds:                   7
##########                       Formal_Charge:        -9.99719e-05
##########                     HBond_Acceptors:                  10
##########                        HBond_Donors:                   2
##########                         Heavy_Atoms:                  32
##########                            HA_RMSDs:               0.335
##########                            HA_RMSDh:               0.335
##########                            HA_RMSDm:               0.335
##########                          Grid_Score:          -69.658829
##########                     Grid_vdw_energy:          -68.058395
##########                      Grid_es_energy:           -1.600430
##########           Internal_energy_repulsive:           21.536388

@<TRIPOS>MOLECULE
443_1_3KL6
 58 61 1 0 0
SMALL
USER_CHARGES


@<TRIPOS>ATOM
      1 C1          6.0022   -7.7400  -14.5438 C.ar    1  <0>        -0.0522
      2 C2          4.8784   -4.5384  -16.0804 C.ar    1  <0>        -0.0526
      3 C3          5.2680   -8.6285  -15.2593 C.ar    1  <0>        -0.0363
      4 C4          5.6160   -3.6486  -15.3508 C.ar    1  <0>        -0.0428
      5 C5          4.2471   -6.8671  -16.5499 C.ar    1  <0>        -0.0292
      6 C6          6.6231   -5.4208  -14.0784 C.ar    1  <0>        -0.0357
      7 C7         -0.5868   -9.4405   -7.4785 C.3     1  <0>        -0.0214
      8 C8         -1.7522  -10.0595  -11.7386 C.3     1  <0>        -0.0183
      9 C9          0.5313  -11.0230  -11.3488 C.3     1  <0>        -0.0183
     10 C10        -1.1339  -10.5754   -6.6043 C.3     1  <0>         0.0145
     11 C11        -0.0340  -10.0068   -8.7910 C.3     1  <0>         0.0178
     12 C12        -1.7009  -10.4863  -13.2234 C.3     1  <0>         0.0164
     13 C13         0.6470  -11.3564  -12.8388 C.3     1  <0>         0.0164
     14 C14         1.7619   -9.1848  -16.4587 C.3     1  <0>         0.1052
     15 C15         4.9901   -5.9226  -15.8221 C.ar    1  <0>        -0.0160
     16 C16         5.8822   -6.3645  -14.8061 C.ar    1  <0>        -0.0164
     17 C17         4.3877   -8.1917  -16.2575 C.ar    1  <0>         0.0889
     18 C18         6.4912   -4.0854  -14.3338 C.ar    1  <0>         0.0416
     19 C19        -0.9419  -11.0812  -10.9218 C.3     1  <0>         0.0303
     20 C20        -1.9300  -11.5503   -8.7267 C.2     1  <0>         0.3025
     21 C21         1.6119   -9.9128  -15.1225 C.3     1  <0>         0.1506
     22 C22         0.1489   -9.8712  -14.7362 C.2     1  <0>         0.2458
     23 N1         -2.0249  -11.4316   -7.3890 N.am    1  <0>        -0.2992
     24 N2         -0.2826  -10.5368  -13.6391 N.am    1  <0>        -0.2992
     25 N3         -1.0086  -10.8889   -9.4606 N.am    1  <0>        -0.2824
     26 O1          2.3708   -9.2391  -14.0966 O.3     1  <0>        -0.3809
     27 O2         -2.7150  -12.2848   -9.2927 O.2     1  <0>        -0.2526
     28 O3         -0.6303   -9.2134  -15.4068 O.2     1  <0>        -0.2727
     29 O4          3.9670  -10.6337  -16.8613 O.2     1  <0>        -0.1693
     30 O5          3.3625   -8.8579  -18.4960 O.2     1  <0>        -0.1693
     31 S1          3.4199   -9.3442  -17.1590 S.o2    1  <0>        -0.0002
     32 Cl1         7.4099   -2.9399  -13.4024 Cl      1  <0>        -0.0835
     33 H1          6.6765   -8.0884  -13.7754 H       1  <0>         0.0624
     34 H2          4.2117   -4.1839  -16.8526 H       1  <0>         0.0624
     35 H3          5.3633   -9.6850  -15.0568 H       1  <0>         0.0637
     36 H4          5.5273   -2.5921  -15.5563 H       1  <0>         0.0632
     37 H5          3.5731   -6.5482  -17.3312 H       1  <0>         0.0643
     38 H6          7.3040   -5.7535  -13.3090 H       1  <0>         0.0638
     39 H7         -1.3975   -8.7315   -7.7020 H       1  <0>         0.0295
     40 H8          0.2196   -8.9228   -6.9384 H       1  <0>         0.0295
     41 H9         -1.3180   -9.0556  -11.6212 H       1  <0>         0.0298
     42 H10        -2.7949  -10.0413  -11.3889 H       1  <0>         0.0298
     43 H11         1.1110  -11.7526  -10.7643 H       1  <0>         0.0298
     44 H12         0.9250  -10.0118  -11.1683 H       1  <0>         0.0298
     45 H13        -0.2950  -11.1769   -6.2241 H       1  <0>         0.0463
     46 H14        -1.6941  -10.1456   -5.7607 H       1  <0>         0.0463
     47 H15         0.2044   -9.1697   -9.4636 H       1  <0>         0.0466
     48 H16         0.8737  -10.5876   -8.5700 H       1  <0>         0.0466
     49 H17        -2.1624  -11.4774  -13.3445 H       1  <0>         0.0465
     50 H18        -2.2469   -9.7585  -13.8416 H       1  <0>         0.0465
     51 H19         1.6764  -11.1558  -13.1708 H       1  <0>         0.0465
     52 H20         0.4044  -12.4190  -12.9869 H       1  <0>         0.0465
     53 H21         1.0416   -9.6141  -17.1706 H       1  <0>         0.0535
     54 H22         1.5546   -8.1166  -16.2972 H       1  <0>         0.0535
     55 H23        -1.3978  -12.0593  -11.1350 H       1  <0>         0.0502
     56 H24         1.9766  -10.9459  -15.2208 H       1  <0>         0.0707
     57 H25        -2.7340  -11.9503   -6.9113 H       1  <0>         0.1502
     58 H26         2.0833   -9.5379  -13.2417 H       1  <0>         0.2105
@<TRIPOS>BOND
     1     1     3   ar
     2     1    16   ar
     3     2     4   ar
     4     2    15   ar
     5     3    17   ar
     6     4    18   ar
     7     5    15   ar
     8     5    17   ar
     9     6    16   ar
    10     6    18   ar
    11     7    10    1
    12     7    11    1
    13     8    12    1
    14     8    19    1
    15     9    13    1
    16     9    19    1
    17    10    23    1
    18    11    25    1
    19    12    24    1
    20    13    24    1
    21    14    21    1
    22    14    31    1
    23    15    16   ar
    24    17    31    1
    25    18    32    1
    26    19    25    1
    27    20    23   am
    28    20    25   am
    29    20    27    2
    30    21    22    1
    31    21    26    1
    32    22    24   am
    33    22    28    2
    34    29    31    2
    35    30    31    2
    36     1    33    1
    37     2    34    1
    38     3    35    1
    39     4    36    1
    40     5    37    1
    41     6    38    1
    42     7    39    1
    43     7    40    1
    44     8    41    1
    45     8    42    1
    46     9    43    1
    47     9    44    1
    48    10    45    1
    49    10    46    1
    50    11    47    1
    51    11    48    1
    52    12    49    1
    53    12    50    1
    54    13    51    1
    55    13    52    1
    56    14    53    1
    57    14    54    1
    58    19    55    1
    59    21    56    1
    60    23    57    1
    61    26    58    1
@<TRIPOS>SUBSTRUCTURE
     1 <0>         1 TEMP              0 ****  ****    0 ROOT

