
##########                                Name:        ZST_600_2HV5
##########                    Molecular_Weight:             418.376
##########                DOCK_Rotatable_Bonds:                   5
##########                       Formal_Charge:                  -1
##########                     HBond_Acceptors:                  10
##########                        HBond_Donors:                   0
##########                         Heavy_Atoms:                  29
##########                            HA_RMSDs:               0.122
##########                            HA_RMSDh:               0.122
##########                            HA_RMSDm:               0.122
##########                          Grid_Score:           30.712345
##########                     Grid_vdw_energy:          -43.233341
##########                      Grid_es_energy:           73.945686
##########           Internal_energy_repulsive:            9.666806

@<TRIPOS>MOLECULE
ZST_600_2HV5
 40 43 1 0 0
SMALL
USER_CHARGES


@<TRIPOS>ATOM
      1 C1         14.9529  -10.8854   17.7569 C.ar    1  <0>        -0.0611
      2 C2         15.2524  -11.6229   16.6277 C.ar    1  <0>        -0.0610
      3 C3         15.5449   -9.6804   17.9784 C.ar    1  <0>        -0.0521
      4 C4         16.1322  -11.1409   15.7132 C.ar    1  <0>        -0.0489
      5 C5         15.2756   -4.3249   10.5807 C.ar    1  <0>        -0.0489
      6 C6         15.1478   -5.2672   11.5610 C.ar    1  <0>        -0.0454
      7 C7         17.6853   -4.2709   10.7777 C.ar    1  <0>        -0.0236
      8 C8         16.8404   -6.9436   18.3716 C.3     1  <0>         0.0313
      9 C9         19.1839   -7.4863   14.3682 C.3     1  <0>         0.0866
     10 C10        16.5150   -3.8520   10.2050 C.ar    1  <0>         0.0569
     11 C11        16.4616   -9.1386   17.0685 C.ar    1  <0>         0.0103
     12 C12        16.7453   -9.8966   15.9255 C.ar    1  <0>         0.0475
     13 C13        16.3471   -5.6956   12.1560 C.ar    1  <0>         0.0393
     14 C14        17.6115   -5.2280   11.7907 C.ar    1  <0>         0.0791
     15 C15        17.1248   -7.8707   17.2203 C.2     1  <0>         0.0728
     16 C16        18.2712   -6.6717   13.4061 C.2     1  <0>         0.0988
     17 C17        17.6916   -9.4126   14.9552 C.2     1  <0>         0.2668
     18 C18        15.5421   -6.2201   18.1681 C.2     1  <0>         0.0476
     19 C19        16.5647   -2.8133    9.1142 C.3     1  <0>         0.4175
     20 N1         18.6750   -5.8085   12.5284 N.2     1  <0>        -0.2423
     21 N2         17.9456   -7.4060   16.3603 N.2     1  <0>        -0.1805
     22 N3         18.2162   -8.1716   15.2344 N.am    1  <0>        -0.1825
     23 O1         15.1058   -5.9794   16.9973 O.co2   1  <0>        -0.5494
     24 O2         17.9373  -10.0475   13.9307 O.2     1  <0>        -0.2682
     25 O3         15.0332   -5.6653   19.1724 O.co2   1  <0>        -0.5494
     26 F1         15.7685   -1.7892    9.4483 F       1  <0>        -0.1659
     27 F2         16.2577   -3.1775    7.9053 F       1  <0>        -0.1659
     28 F3         17.7489   -2.2204    9.0352 F       1  <0>        -0.1659
     29 S1         16.5384   -6.8414   13.4038 S.3     1  <0>        -0.0705
     30 H1         14.2407  -11.2698   18.4721 H       1  <0>         0.0618
     31 H2         14.7857  -12.5844   16.4724 H       1  <0>         0.0618
     32 H3         15.3026   -9.1298   18.8754 H       1  <0>         0.0624
     33 H4         16.3594  -11.7129   14.8256 H       1  <0>         0.0625
     34 H5         14.3913   -3.9438   10.0918 H       1  <0>         0.0623
     35 H6         14.1865   -5.6583   11.8599 H       1  <0>         0.0629
     36 H7         18.6363   -3.8732   10.4557 H       1  <0>         0.0645
     37 H8         16.7808   -7.5322   19.2991 H       1  <0>         0.0389
     38 H9         17.6533   -6.2064   18.4468 H       1  <0>         0.0389
     39 H10        19.8180   -8.1997   13.8216 H       1  <0>         0.0555
     40 H11        19.8550   -6.8324   14.9444 H       1  <0>         0.0555
@<TRIPOS>BOND
     1     1     2   ar
     2     1     3   ar
     3     2     4   ar
     4     3    11   ar
     5     4    12   ar
     6     5     6   ar
     7     5    10   ar
     8     6    13   ar
     9     7    10   ar
    10     7    14   ar
    11     8    15    1
    12     8    18    1
    13     9    16    1
    14     9    22    1
    15    10    19    1
    16    11    12   ar
    17    11    15    1
    18    12    17    1
    19    13    14   ar
    20    13    29    1
    21    14    20    1
    22    15    21    2
    23    16    20    2
    24    16    29    1
    25    17    22   am
    26    17    24    2
    27    18    23    1
    28    18    25    2
    29    19    26    1
    30    19    27    1
    31    19    28    1
    32    21    22    1
    33     1    30    1
    34     2    31    1
    35     3    32    1
    36     4    33    1
    37     5    34    1
    38     6    35    1
    39     7    36    1
    40     8    37    1
    41     8    38    1
    42     9    39    1
    43     9    40    1
@<TRIPOS>SUBSTRUCTURE
     1 <0>         1 TEMP              0 ****  ****    0 ROOT

