
##########                                Name:        AT1_258_1VSO
##########                    Molecular_Weight:             320.239
##########                DOCK_Rotatable_Bonds:                   7
##########                       Formal_Charge:             -1.9998
##########                     HBond_Acceptors:                   9
##########                        HBond_Donors:                   3
##########                         Heavy_Atoms:                  21
##########                            HA_RMSDs:               9.991
##########                            HA_RMSDh:               9.715
##########                            HA_RMSDm:               8.819
##########                          Grid_Score:           32.551872
##########                     Grid_vdw_energy:          -23.021805
##########                      Grid_es_energy:           55.573677
##########           Internal_energy_repulsive:            8.979994

@<TRIPOS>MOLECULE
AT1_258_1VSO
 38 38 1 0 0
SMALL
USER_CHARGES


@<TRIPOS>ATOM
      1 C1         35.0105   -1.4535    3.0801 C.3     1  <0>        -0.0541
      2 C2         35.8491   -0.4747    0.9379 C.3     1  <0>        -0.0541
      3 C3         36.0447    0.7985    3.0556 C.3     1  <0>        -0.0541
      4 C4         33.3962    2.9415    2.6907 C.3     1  <0>         0.0271
      5 C5         29.6867    2.0009    0.6943 C.3     1  <0>         0.0830
      6 C6         33.0554    1.5789    2.1658 C.2     1  <0>         0.0385
      7 C7         33.7499    0.3962    2.0042 C.2     1  <0>         0.0984
      8 C8         31.7437    1.2520    1.6906 C.2     1  <0>         0.2008
      9 C9         33.3714    4.0685    1.6546 C.3     1  <0>         0.0202
     10 C10        32.8755    5.4258    2.2943 C.2     1  <0>         0.0897
     11 C11        35.1587   -0.1501    2.2590 C.3     1  <0>         0.0117
     12 N1         34.7602    4.3049    1.0425 N.4     1  <0>         0.2251
     13 N2         31.6271    0.0136    1.2724 N.2     1  <0>        -0.1019
     14 O1         33.5760    6.4599    2.0698 O.co2   1  <0>        -0.5442
     15 O2         27.2014    2.6860    0.2284 O.3     1  <0>        -0.8113
     16 O3         27.9410    2.7595    2.6096 O.3     1  <0>        -0.8113
     17 O4         31.8240    5.3934    2.9748 O.co2   1  <0>        -0.5442
     18 O5         28.7702    4.5205    0.9750 O.2     1  <0>        -0.3512
     19 O6         32.9139   -0.5376    1.4711 O.3     1  <0>        -0.2138
     20 O7         30.7436    2.1542    1.6985 O.3     1  <0>        -0.3211
     21 P1         28.3254    3.1111    1.1335 P.3     1  <0>        -0.0394
     22 H1         34.5134   -1.2309    4.0358 H       1  <0>         0.0239
     23 H2         34.4069   -2.1773    2.5129 H       1  <0>         0.0239
     24 H3         36.0060   -1.8789    3.2751 H       1  <0>         0.0239
     25 H4         35.9597    0.4455    0.3456 H       1  <0>         0.0239
     26 H5         36.8422   -0.9029    1.1389 H       1  <0>         0.0239
     27 H6         35.2431   -1.2012    0.3766 H       1  <0>         0.0239
     28 H7         36.1709    1.7383    2.4981 H       1  <0>         0.0239
     29 H8         35.5750    1.0092    4.0276 H       1  <0>         0.0239
     30 H9         37.0283    0.3330    3.2166 H       1  <0>         0.0239
     31 H10        32.6604    3.1906    3.4695 H       1  <0>         0.0374
     32 H11        34.4146    2.8928    3.1036 H       1  <0>         0.0374
     33 H12        30.0756    2.2607   -0.3014 H       1  <0>         0.0622
     34 H13        29.3315    0.9600    0.6802 H       1  <0>         0.0622
     35 H14        32.6722    3.7496    0.8675 H       1  <0>         0.0918
     36 H15        34.7080    5.0451    0.3722 H       1  <0>         0.2001
     37 H16        35.4047    4.5547    1.7652 H       1  <0>         0.2001
     38 H17        35.0724    3.4686    0.5917 H       1  <0>         0.2001
@<TRIPOS>BOND
     1     1    11    1
     2     2    11    1
     3     3    11    1
     4     4     6    1
     5     4     9    1
     6     5    20    1
     7     5    21    1
     8     6     7    2
     9     6     8    1
    10     7    11    1
    11     7    19    1
    12     8    13    2
    13     8    20    1
    14     9    10    1
    15     9    12    1
    16    10    14    1
    17    10    17    2
    18    13    19    1
    19    15    21    1
    20    16    21    1
    21    18    21    2
    22     1    22    1
    23     1    23    1
    24     1    24    1
    25     2    25    1
    26     2    26    1
    27     2    27    1
    28     3    28    1
    29     3    29    1
    30     3    30    1
    31     4    31    1
    32     4    32    1
    33     5    33    1
    34     5    34    1
    35     9    35    1
    36    12    36    1
    37    12    37    1
    38    12    38    1
@<TRIPOS>SUBSTRUCTURE
     1 <0>         1 TEMP              0 ****  ****    0 ROOT

