
##########                                Name:        AT1_258_1VSO
##########                    Molecular_Weight:             320.239
##########                DOCK_Rotatable_Bonds:                   7
##########                       Formal_Charge:             -1.9998
##########                     HBond_Acceptors:                   9
##########                        HBond_Donors:                   3
##########                         Heavy_Atoms:                  21
##########                            HA_RMSDs:               9.141
##########                            HA_RMSDh:               9.138
##########                            HA_RMSDm:               7.819
##########                          Grid_Score:           30.066677
##########                     Grid_vdw_energy:          -22.534740
##########                      Grid_es_energy:           52.601418
##########           Internal_energy_repulsive:            8.002295

@<TRIPOS>MOLECULE
AT1_258_1VSO
 38 38 1 0 0
SMALL
USER_CHARGES


@<TRIPOS>ATOM
      1 C1         35.4160    1.7096    5.8498 C.3     1  <0>        -0.0541
      2 C2         37.2012    1.2657    4.1568 C.3     1  <0>        -0.0541
      3 C3         35.2662    2.7055    3.5854 C.3     1  <0>        -0.0541
      4 C4         34.9319   -0.3086    1.3279 C.3     1  <0>         0.0271
      5 C5         32.4465   -3.5323    3.0033 C.3     1  <0>         0.0830
      6 C6         34.6339   -0.4979    2.7852 C.2     1  <0>         0.0385
      7 C7         34.9410    0.1951    3.9396 C.2     1  <0>         0.0984
      8 C8         33.8501   -1.5970    3.2658 C.2     1  <0>         0.2008
      9 C9         36.2259   -0.9605    0.8331 C.3     1  <0>         0.0202
     10 C10        35.9245   -2.1782   -0.1280 C.2     1  <0>         0.0897
     11 C11        35.7006    1.4615    4.3489 C.3     1  <0>         0.0117
     12 N1         37.1105    0.0416    0.0762 N.4     1  <0>         0.2251
     13 N2         33.6887   -1.6007    4.5681 N.2     1  <0>        -0.1019
     14 O1         35.4479   -1.9065   -1.2723 O.co2   1  <0>        -0.5442
     15 O2         30.1062   -3.2849    1.8522 O.3     1  <0>        -0.8113
     16 O3         32.0372   -3.7502    0.3431 O.3     1  <0>        -0.8113
     17 O4         36.1794   -3.3281    0.2993 O.co2   1  <0>        -0.5442
     18 O5         31.1409   -5.5899    1.8506 O.2     1  <0>        -0.3512
     19 O6         34.3893   -0.4523    5.0034 O.3     1  <0>        -0.2138
     20 O7         33.3325   -2.5159    2.4281 O.3     1  <0>        -0.3211
     21 P1         31.3439   -4.1256    1.6954 P.3     1  <0>        -0.0394
     22 H1         34.3357    1.8523    6.0000 H       1  <0>         0.0239
     23 H2         35.7561    0.8429    6.4355 H       1  <0>         0.0239
     24 H3         35.9541    2.6101    6.1808 H       1  <0>         0.0239
     25 H4         37.4151    1.0884    3.0925 H       1  <0>         0.0239
     26 H5         37.7344    2.1674    4.4925 H       1  <0>         0.0239
     27 H6         37.5365    0.4002    4.7472 H       1  <0>         0.0239
     28 H7         35.4554    2.5619    2.5114 H       1  <0>         0.0239
     29 H8         34.1923    2.8792    3.7483 H       1  <0>         0.0239
     30 H9         35.8370    3.5743    3.9453 H       1  <0>         0.0239
     31 H10        34.0998   -0.7494    0.7592 H       1  <0>         0.0374
     32 H11        35.0136    0.7727    1.1437 H       1  <0>         0.0374
     33 H12        33.0423   -4.3681    3.3988 H       1  <0>         0.0622
     34 H13        31.8556   -3.0945    3.8214 H       1  <0>         0.0622
     35 H14        36.7560   -1.3149    1.7294 H       1  <0>         0.0918
     36 H15        37.9447   -0.4159   -0.2319 H       1  <0>         0.2001
     37 H16        36.6120    0.3943   -0.7157 H       1  <0>         0.2001
     38 H17        37.3508    0.7989    0.6835 H       1  <0>         0.2001
@<TRIPOS>BOND
     1     1    11    1
     2     2    11    1
     3     3    11    1
     4     4     6    1
     5     4     9    1
     6     5    20    1
     7     5    21    1
     8     6     7    2
     9     6     8    1
    10     7    11    1
    11     7    19    1
    12     8    13    2
    13     8    20    1
    14     9    10    1
    15     9    12    1
    16    10    14    1
    17    10    17    2
    18    13    19    1
    19    15    21    1
    20    16    21    1
    21    18    21    2
    22     1    22    1
    23     1    23    1
    24     1    24    1
    25     2    25    1
    26     2    26    1
    27     2    27    1
    28     3    28    1
    29     3    29    1
    30     3    30    1
    31     4    31    1
    32     4    32    1
    33     5    33    1
    34     5    34    1
    35     9    35    1
    36    12    36    1
    37    12    37    1
    38    12    38    1
@<TRIPOS>SUBSTRUCTURE
     1 <0>         1 TEMP              0 ****  ****    0 ROOT

