
##########                                Name:        AT1_258_1VSO
##########                    Molecular_Weight:             320.239
##########                DOCK_Rotatable_Bonds:                   7
##########                       Formal_Charge:             -1.9998
##########                     HBond_Acceptors:                   9
##########                        HBond_Donors:                   3
##########                         Heavy_Atoms:                  21
##########                            HA_RMSDs:              14.310
##########                            HA_RMSDh:              14.214
##########                            HA_RMSDm:              12.760
##########                          Grid_Score:           29.959881
##########                     Grid_vdw_energy:          -10.200886
##########                      Grid_es_energy:           40.160767
##########           Internal_energy_repulsive:            8.855247

@<TRIPOS>MOLECULE
AT1_258_1VSO
 38 38 1 0 0
SMALL
USER_CHARGES


@<TRIPOS>ATOM
      1 C1         33.9687   -3.2454    2.2726 C.3     1  <0>        -0.0541
      2 C2         34.7721   -1.9348    0.3011 C.3     1  <0>        -0.0541
      3 C3         33.2123   -0.9101    1.9323 C.3     1  <0>        -0.0541
      4 C4         30.0505   -2.7338    1.6141 C.3     1  <0>         0.0271
      5 C5         29.2290   -4.9876   -2.0417 C.3     1  <0>         0.0830
      6 C6         31.0558   -3.0023    0.5345 C.2     1  <0>         0.0385
      7 C7         32.4125   -2.7867    0.3922 C.2     1  <0>         0.0984
      8 C8         30.6970   -3.6349   -0.7001 C.2     1  <0>         0.2008
      9 C9         29.1954   -1.4791    1.4166 C.3     1  <0>         0.0202
     10 C10        27.6633   -1.7850    1.6544 C.2     1  <0>         0.0897
     11 C11        33.5714   -2.1986    1.2042 C.3     1  <0>         0.0117
     12 N1         29.6146   -0.3526    2.3730 N.4     1  <0>         0.2251
     13 N2         31.7052   -3.7925   -1.5252 N.2     1  <0>        -0.1019
     14 O1         27.2433   -1.7340    2.8508 O.co2   1  <0>        -0.5442
     15 O2         27.0187   -6.0669   -1.1400 O.3     1  <0>        -0.8113
     16 O3         28.5077   -7.5524   -2.4811 O.3     1  <0>        -0.8113
     17 O4         26.9649   -2.0522    0.6491 O.co2   1  <0>        -0.5442
     18 O5         29.1838   -6.8821   -0.1243 O.2     1  <0>        -0.3512
     19 O6         32.8074   -3.2474   -0.8272 O.3     1  <0>        -0.2138
     20 O7         29.4338   -4.0292   -0.9515 O.3     1  <0>        -0.3211
     21 P1         28.4525   -6.4704   -1.3512 P.3     1  <0>        -0.0394
     22 H1         33.1094   -3.4435    2.9300 H       1  <0>         0.0239
     23 H2         34.2729   -4.1786    1.7760 H       1  <0>         0.0239
     24 H3         34.8065   -2.8584    2.8711 H       1  <0>         0.0239
     25 H4         34.5007   -1.1914   -0.4628 H       1  <0>         0.0239
     26 H5         35.6078   -1.5513    0.9050 H       1  <0>         0.0239
     27 H6         35.0742   -2.8716   -0.1902 H       1  <0>         0.0239
     28 H7         32.9241   -0.1423    1.1994 H       1  <0>         0.0239
     29 H8         32.3716   -1.0978    2.6164 H       1  <0>         0.0239
     30 H9         34.0821   -0.5597    2.5075 H       1  <0>         0.0239
     31 H10        29.3692   -3.5965    1.6550 H       1  <0>         0.0374
     32 H11        30.6017   -2.6143    2.5584 H       1  <0>         0.0374
     33 H12        28.5772   -4.5468   -2.8104 H       1  <0>         0.0622
     34 H13        30.1954   -5.2486   -2.4975 H       1  <0>         0.0622
     35 H14        29.3546   -1.1569    0.3769 H       1  <0>         0.0918
     36 H15        29.0376    0.4492    2.2175 H       1  <0>         0.2001
     37 H16        29.5086   -0.6612    3.3182 H       1  <0>         0.2001
     38 H17        30.5709   -0.1123    2.2059 H       1  <0>         0.2001
@<TRIPOS>BOND
     1     1    11    1
     2     2    11    1
     3     3    11    1
     4     4     6    1
     5     4     9    1
     6     5    20    1
     7     5    21    1
     8     6     7    2
     9     6     8    1
    10     7    11    1
    11     7    19    1
    12     8    13    2
    13     8    20    1
    14     9    10    1
    15     9    12    1
    16    10    14    1
    17    10    17    2
    18    13    19    1
    19    15    21    1
    20    16    21    1
    21    18    21    2
    22     1    22    1
    23     1    23    1
    24     1    24    1
    25     2    25    1
    26     2    26    1
    27     2    27    1
    28     3    28    1
    29     3    29    1
    30     3    30    1
    31     4    31    1
    32     4    32    1
    33     5    33    1
    34     5    34    1
    35     9    35    1
    36    12    36    1
    37    12    37    1
    38    12    38    1
@<TRIPOS>SUBSTRUCTURE
     1 <0>         1 TEMP              0 ****  ****    0 ROOT

