
##########                                Name:        AT1_258_1VSO
##########                    Molecular_Weight:             320.239
##########                DOCK_Rotatable_Bonds:                   7
##########                       Formal_Charge:             -1.9998
##########                     HBond_Acceptors:                   9
##########                        HBond_Donors:                   3
##########                         Heavy_Atoms:                  21
##########                            HA_RMSDs:               5.170
##########                            HA_RMSDh:               4.926
##########                            HA_RMSDm:               4.523
##########                          Grid_Score:           50.431824
##########                     Grid_vdw_energy:          -27.636053
##########                      Grid_es_energy:           78.067879
##########           Internal_energy_repulsive:            8.939526

@<TRIPOS>MOLECULE
AT1_258_1VSO
 38 38 1 0 0
SMALL
USER_CHARGES


@<TRIPOS>ATOM
      1 C1         40.2383    6.5431    9.1287 C.3     1  <0>        -0.0541
      2 C2         41.3113    7.4691    7.0692 C.3     1  <0>        -0.0541
      3 C3         39.7759    8.8717    8.4178 C.3     1  <0>        -0.0541
      4 C4         36.4561    7.3348    8.1110 C.3     1  <0>         0.0271
      5 C5         35.6192    4.8924    4.5464 C.3     1  <0>         0.0830
      6 C6         37.4911    6.8274    7.1521 C.2     1  <0>         0.0385
      7 C7         38.8692    6.8879    7.0854 C.2     1  <0>         0.0984
      8 C8         37.1429    6.0741    5.9840 C.2     1  <0>         0.2008
      9 C9         35.3975    8.2598    7.5043 C.3     1  <0>         0.0202
     10 C10        33.9569    7.9281    8.0629 C.2     1  <0>         0.0897
     11 C11        40.0324    7.4625    7.9008 C.3     1  <0>         0.0117
     12 N1         35.6996    9.7363    7.8007 N.4     1  <0>         0.2251
     13 N2         38.1771    5.7097    5.2630 N.2     1  <0>        -0.1019
     14 O1         33.4631    8.7393    8.9047 O.co2   1  <0>        -0.5442
     15 O2         33.6090    3.7119    3.3511 O.3     1  <0>        -0.8113
     16 O3         33.0935    4.8667    5.5013 O.3     1  <0>        -0.8113
     17 O4         33.3963    6.8920    7.6361 O.co2   1  <0>        -0.5442
     18 O5         33.5748    6.2375    3.4157 O.2     1  <0>        -0.3512
     19 O6         39.2865    6.2321    5.9669 O.3     1  <0>        -0.2138
     20 O7         35.8626    5.7755    5.6908 O.3     1  <0>        -0.3211
     21 P1         33.8568    4.9696    4.1385 P.3     1  <0>        -0.0394
     22 H1         39.3213    6.5309    9.7360 H       1  <0>         0.0239
     23 H2         40.4659    5.5223    8.7881 H       1  <0>         0.0239
     24 H3         41.0742    6.9227    9.7346 H       1  <0>         0.0239
     25 H4         41.1761    8.1201    6.1930 H       1  <0>         0.0239
     26 H5         42.1443    7.8461    7.6809 H       1  <0>         0.0239
     27 H6         41.5361    6.4457    6.7343 H       1  <0>         0.0239
     28 H7         39.6248    9.5530    7.5676 H       1  <0>         0.0239
     29 H8         38.8768    8.8716    9.0516 H       1  <0>         0.0239
     30 H9         40.6408    9.2086    9.0082 H       1  <0>         0.0239
     31 H10        35.9336    6.4612    8.5280 H       1  <0>         0.0374
     32 H11        36.9798    7.9000    8.8960 H       1  <0>         0.0374
     33 H12        36.2180    5.2223    3.6846 H       1  <0>         0.0622
     34 H13        35.8993    3.8602    4.8036 H       1  <0>         0.0622
     35 H14        35.4245    8.0900    6.4178 H       1  <0>         0.0918
     36 H15        34.9908   10.3108    7.3913 H       1  <0>         0.2001
     37 H16        35.7156    9.8811    8.7901 H       1  <0>         0.2001
     38 H17        36.5894    9.9785    7.4139 H       1  <0>         0.2001
@<TRIPOS>BOND
     1     1    11    1
     2     2    11    1
     3     3    11    1
     4     4     6    1
     5     4     9    1
     6     5    20    1
     7     5    21    1
     8     6     7    2
     9     6     8    1
    10     7    11    1
    11     7    19    1
    12     8    13    2
    13     8    20    1
    14     9    10    1
    15     9    12    1
    16    10    14    1
    17    10    17    2
    18    13    19    1
    19    15    21    1
    20    16    21    1
    21    18    21    2
    22     1    22    1
    23     1    23    1
    24     1    24    1
    25     2    25    1
    26     2    26    1
    27     2    27    1
    28     3    28    1
    29     3    29    1
    30     3    30    1
    31     4    31    1
    32     4    32    1
    33     5    33    1
    34     5    34    1
    35     9    35    1
    36    12    36    1
    37    12    37    1
    38    12    38    1
@<TRIPOS>SUBSTRUCTURE
     1 <0>         1 TEMP              0 ****  ****    0 ROOT

