
##########                                Name:        AT1_258_1VSO
##########                    Molecular_Weight:             320.239
##########                DOCK_Rotatable_Bonds:                   7
##########                       Formal_Charge:             -1.9998
##########                     HBond_Acceptors:                   9
##########                        HBond_Donors:                   3
##########                         Heavy_Atoms:                  21
##########                            HA_RMSDs:              16.257
##########                            HA_RMSDh:              16.159
##########                            HA_RMSDm:              14.893
##########                          Grid_Score:           20.936703
##########                     Grid_vdw_energy:          -10.970016
##########                      Grid_es_energy:           31.906719
##########           Internal_energy_repulsive:            9.951572

@<TRIPOS>MOLECULE
AT1_258_1VSO
 38 38 1 0 0
SMALL
USER_CHARGES


@<TRIPOS>ATOM
      1 C1         33.9119   -4.8930    0.3968 C.3     1  <0>        -0.0541
      2 C2         34.9463   -4.3600   -1.8159 C.3     1  <0>        -0.0541
      3 C3         33.6198   -2.6478   -0.6107 C.3     1  <0>        -0.0541
      4 C4         30.1647   -3.9060   -0.5412 C.3     1  <0>         0.0271
      5 C5         28.6542   -4.9981   -3.8189 C.3     1  <0>         0.0830
      6 C6         31.0949   -4.6227   -1.4737 C.2     1  <0>         0.0385
      7 C7         32.4668   -4.6968   -1.6135 C.2     1  <0>         0.0984
      8 C8         30.6161   -5.4829   -2.5148 C.2     1  <0>         0.2008
      9 C9         29.3827   -2.7441   -1.1598 C.3     1  <0>         0.0202
     10 C10        28.0023   -2.5240   -0.4227 C.2     1  <0>         0.0897
     11 C11        33.7205   -4.1319   -0.9370 C.3     1  <0>         0.0117
     12 N1         30.1764   -1.4305   -1.0960 N.4     1  <0>         0.2251
     13 N2         31.5715   -6.0281   -3.2304 N.2     1  <0>        -0.1019
     14 O1         27.5395   -1.3425   -0.4042 O.co2   1  <0>        -0.5442
     15 O2         27.6577   -5.8623   -6.0824 O.3     1  <0>        -0.8113
     16 O3         28.0467   -7.5815   -4.3173 O.3     1  <0>        -0.8113
     17 O4         27.4545   -3.5278    0.0893 O.co2   1  <0>        -0.5442
     18 O5         26.1350   -5.9251   -4.0671 O.2     1  <0>        -0.3512
     19 O6         32.7606   -5.5239   -2.6550 O.3     1  <0>        -0.2138
     20 O7         29.3002   -5.6983   -2.7048 O.3     1  <0>        -0.3211
     21 P1         27.4999   -6.1449   -4.6132 P.3     1  <0>        -0.0394
     22 H1         33.0329   -4.7354    1.0390 H       1  <0>         0.0239
     23 H2         34.0283   -5.9675    0.1922 H       1  <0>         0.0239
     24 H3         34.8109   -4.5173    0.9073 H       1  <0>         0.0239
     25 H4         34.8208   -3.8229   -2.7676 H       1  <0>         0.0239
     26 H5         35.8425   -3.9857   -1.2993 H       1  <0>         0.0239
     27 H6         35.0598   -5.4360   -2.0145 H       1  <0>         0.0239
     28 H7         33.4827   -2.0759   -1.5403 H       1  <0>         0.0239
     29 H8         32.7612   -2.4763    0.0551 H       1  <0>         0.0239
     30 H9         34.5430   -2.3190   -0.1109 H       1  <0>         0.0239
     31 H10        29.4327   -4.6402   -0.1737 H       1  <0>         0.0374
     32 H11        30.7695   -3.4979    0.2819 H       1  <0>         0.0374
     33 H12        28.1100   -4.1188   -3.4436 H       1  <0>         0.0622
     34 H13        29.4127   -4.6679   -4.5439 H       1  <0>         0.0622
     35 H14        29.2054   -3.0156   -2.2110 H       1  <0>         0.0918
     36 H15        29.6381   -0.6950   -1.5073 H       1  <0>         0.2001
     37 H16        30.3729   -1.2060   -0.1415 H       1  <0>         0.2001
     38 H17        31.0352   -1.5354   -1.5975 H       1  <0>         0.2001
@<TRIPOS>BOND
     1     1    11    1
     2     2    11    1
     3     3    11    1
     4     4     6    1
     5     4     9    1
     6     5    20    1
     7     5    21    1
     8     6     7    2
     9     6     8    1
    10     7    11    1
    11     7    19    1
    12     8    13    2
    13     8    20    1
    14     9    10    1
    15     9    12    1
    16    10    14    1
    17    10    17    2
    18    13    19    1
    19    15    21    1
    20    16    21    1
    21    18    21    2
    22     1    22    1
    23     1    23    1
    24     1    24    1
    25     2    25    1
    26     2    26    1
    27     2    27    1
    28     3    28    1
    29     3    29    1
    30     3    30    1
    31     4    31    1
    32     4    32    1
    33     5    33    1
    34     5    34    1
    35     9    35    1
    36    12    36    1
    37    12    37    1
    38    12    38    1
@<TRIPOS>SUBSTRUCTURE
     1 <0>         1 TEMP              0 ****  ****    0 ROOT

