
##########                                Name:        AT1_258_1VSO
##########                    Molecular_Weight:             320.239
##########                DOCK_Rotatable_Bonds:                   7
##########                       Formal_Charge:             -1.9998
##########                     HBond_Acceptors:                   9
##########                        HBond_Donors:                   3
##########                         Heavy_Atoms:                  21
##########                            HA_RMSDs:              16.844
##########                            HA_RMSDh:              16.815
##########                            HA_RMSDm:              15.320
##########                          Grid_Score:           22.239071
##########                     Grid_vdw_energy:           -6.568799
##########                      Grid_es_energy:           28.807871
##########           Internal_energy_repulsive:            9.179984

@<TRIPOS>MOLECULE
AT1_258_1VSO
 38 38 1 0 0
SMALL
USER_CHARGES


@<TRIPOS>ATOM
      1 C1         31.1608   -5.5175    4.0384 C.3     1  <0>        -0.0541
      2 C2         31.9710   -4.2068    2.0698 C.3     1  <0>        -0.0541
      3 C3         29.8672   -3.5705    3.2156 C.3     1  <0>        -0.0541
      4 C4         28.3764   -4.6120    0.0659 C.3     1  <0>         0.0271
      5 C5         27.3561   -8.7793   -0.2608 C.3     1  <0>         0.0830
      6 C6         29.0823   -5.7001    0.8183 C.2     1  <0>         0.0385
      7 C7         29.9894   -5.7334    1.8591 C.2     1  <0>         0.0984
      8 C8         28.8736   -7.0872    0.5258 C.2     1  <0>         0.2008
      9 C9         29.0913   -4.1155   -1.1937 C.3     1  <0>         0.0202
     10 C10        28.0864   -3.9692   -2.4045 C.2     1  <0>         0.0897
     11 C11        30.7270   -4.7455    2.7692 C.3     1  <0>         0.0117
     12 N1         29.7660   -2.7551   -0.9621 N.4     1  <0>         0.2251
     13 N2         29.5714   -7.8979    1.2860 N.2     1  <0>        -0.1019
     14 O1         26.8989   -3.6159   -2.1298 O.co2   1  <0>        -0.5442
     15 O2         26.6336  -10.6664   -1.9281 O.3     1  <0>        -0.8113
     16 O3         24.9680   -8.8550   -1.5191 O.3     1  <0>        -0.8113
     17 O4         28.5275   -4.2061   -3.5530 O.co2   1  <0>        -0.5442
     18 O5         27.0421   -8.3733   -2.9073 O.2     1  <0>        -0.3512
     19 O6         30.2898   -7.0315    2.1418 O.3     1  <0>        -0.2138
     20 O7         28.0230   -7.4861   -0.4394 O.3     1  <0>        -0.3211
     21 P1         26.4755   -9.1765   -1.7922 P.3     1  <0>        -0.0394
     22 H1         30.2707   -5.9109    4.5512 H       1  <0>         0.0239
     23 H2         31.8180   -6.3521    3.7530 H       1  <0>         0.0239
     24 H3         31.7023   -4.8384    4.7133 H       1  <0>         0.0239
     25 H4         31.6741   -3.6557    1.1654 H       1  <0>         0.0239
     26 H5         32.5103   -3.5312    2.7501 H       1  <0>         0.0239
     27 H6         32.6260   -5.0450    1.7897 H       1  <0>         0.0239
     28 H7         29.5409   -2.9986    2.3345 H       1  <0>         0.0239
     29 H8         28.9857   -3.9458    3.7560 H       1  <0>         0.0239
     30 H9         30.4540   -2.9182    3.8791 H       1  <0>         0.0239
     31 H10        27.3957   -5.0039   -0.2419 H       1  <0>         0.0374
     32 H11        28.2687   -3.7543    0.7461 H       1  <0>         0.0374
     33 H12        28.1017   -9.5586   -0.0445 H       1  <0>         0.0622
     34 H13        26.6447   -8.7214    0.5761 H       1  <0>         0.0622
     35 H14        29.8561   -4.8692   -1.4325 H       1  <0>         0.0918
     36 H15        30.2221   -2.4614   -1.8022 H       1  <0>         0.2001
     37 H16        29.0748   -2.0799   -0.7047 H       1  <0>         0.2001
     38 H17        30.4405   -2.8383   -0.2285 H       1  <0>         0.2001
@<TRIPOS>BOND
     1     1    11    1
     2     2    11    1
     3     3    11    1
     4     4     6    1
     5     4     9    1
     6     5    20    1
     7     5    21    1
     8     6     7    2
     9     6     8    1
    10     7    11    1
    11     7    19    1
    12     8    13    2
    13     8    20    1
    14     9    10    1
    15     9    12    1
    16    10    14    1
    17    10    17    2
    18    13    19    1
    19    15    21    1
    20    16    21    1
    21    18    21    2
    22     1    22    1
    23     1    23    1
    24     1    24    1
    25     2    25    1
    26     2    26    1
    27     2    27    1
    28     3    28    1
    29     3    29    1
    30     3    30    1
    31     4    31    1
    32     4    32    1
    33     5    33    1
    34     5    34    1
    35     9    35    1
    36    12    36    1
    37    12    37    1
    38    12    38    1
@<TRIPOS>SUBSTRUCTURE
     1 <0>         1 TEMP              0 ****  ****    0 ROOT

