
##########                                Name:        AT1_258_1VSO
##########                    Molecular_Weight:             320.239
##########                DOCK_Rotatable_Bonds:                   7
##########                       Formal_Charge:             -1.9998
##########                     HBond_Acceptors:                   9
##########                        HBond_Donors:                   3
##########                         Heavy_Atoms:                  21
##########                            HA_RMSDs:              14.177
##########                            HA_RMSDh:              14.026
##########                            HA_RMSDm:              12.814
##########                          Grid_Score:           26.147812
##########                     Grid_vdw_energy:          -11.318329
##########                      Grid_es_energy:           37.466141
##########           Internal_energy_repulsive:            9.130573

@<TRIPOS>MOLECULE
AT1_258_1VSO
 38 38 1 0 0
SMALL
USER_CHARGES


@<TRIPOS>ATOM
      1 C1         35.3329   -4.0070    0.7461 C.3     1  <0>        -0.0541
      2 C2         34.8270   -1.7005   -0.0751 C.3     1  <0>        -0.0541
      3 C3         34.2215   -2.3665    2.2344 C.3     1  <0>        -0.0541
      4 C4         30.9572   -3.3308    1.9594 C.3     1  <0>         0.0271
      5 C5         29.1190   -4.8510   -1.7268 C.3     1  <0>         0.0830
      6 C6         31.6887   -3.5727    0.6730 C.2     1  <0>         0.0385
      7 C7         32.9848   -3.3769    0.2386 C.2     1  <0>         0.0984
      8 C8         31.0461   -4.1461   -0.4722 C.2     1  <0>         0.2008
      9 C9         30.6000   -1.8698    2.2461 C.3     1  <0>         0.0202
     10 C10        29.0539   -1.6076    2.0506 C.2     1  <0>         0.0897
     11 C11        34.3115   -2.8453    0.7915 C.3     1  <0>         0.0117
     12 N1         30.9787   -1.4655    3.6788 N.4     1  <0>         0.2251
     13 N2         31.8402   -4.2879   -1.5073 N.2     1  <0>        -0.1019
     14 O1         28.2602   -2.2386    2.8137 O.co2   1  <0>        -0.5442
     15 O2         26.7182   -5.7406   -2.2817 O.3     1  <0>        -0.8113
     16 O3         28.4948   -7.4658   -1.9811 O.3     1  <0>        -0.8113
     17 O4         28.7142   -0.7930    1.1613 O.co2   1  <0>        -0.5442
     18 O5         27.6007   -6.2087    0.0391 O.2     1  <0>        -0.3512
     19 O6         33.0850   -3.7934   -1.0543 O.3     1  <0>        -0.2138
     20 O7         29.7483   -4.5057   -0.4486 O.3     1  <0>        -0.3211
     21 P1         27.8842   -6.1388   -1.4184 P.3     1  <0>        -0.0394
     22 H1         34.9709   -4.8388    1.3683 H       1  <0>         0.0239
     23 H2         35.4514   -4.3505   -0.2921 H       1  <0>         0.0239
     24 H3         36.3028   -3.6574    1.1298 H       1  <0>         0.0239
     25 H4         34.1080   -0.8685   -0.0501 H       1  <0>         0.0239
     26 H5         35.7982   -1.3573    0.3109 H       1  <0>         0.0239
     27 H6         34.9469   -2.0504   -1.1111 H       1  <0>         0.0239
     28 H7         33.5011   -1.5380    2.3021 H       1  <0>         0.0239
     29 H8         33.8876   -3.1957    2.8755 H       1  <0>         0.0239
     30 H9         35.2108   -2.0202    2.5680 H       1  <0>         0.0239
     31 H10        30.0170   -3.9004    1.9186 H       1  <0>         0.0374
     32 H11        31.6020   -3.6816    2.7787 H       1  <0>         0.0374
     33 H12        28.6342   -3.9625   -2.1577 H       1  <0>         0.0622
     34 H13        29.8790   -5.2215   -2.4304 H       1  <0>         0.0622
     35 H14        31.1747   -1.2647    1.5294 H       1  <0>         0.0918
     36 H15        30.7324   -0.5085    3.8316 H       1  <0>         0.2001
     37 H16        30.4867   -2.0441    4.3293 H       1  <0>         0.2001
     38 H17        31.9635   -1.5809    3.8083 H       1  <0>         0.2001
@<TRIPOS>BOND
     1     1    11    1
     2     2    11    1
     3     3    11    1
     4     4     6    1
     5     4     9    1
     6     5    20    1
     7     5    21    1
     8     6     7    2
     9     6     8    1
    10     7    11    1
    11     7    19    1
    12     8    13    2
    13     8    20    1
    14     9    10    1
    15     9    12    1
    16    10    14    1
    17    10    17    2
    18    13    19    1
    19    15    21    1
    20    16    21    1
    21    18    21    2
    22     1    22    1
    23     1    23    1
    24     1    24    1
    25     2    25    1
    26     2    26    1
    27     2    27    1
    28     3    28    1
    29     3    29    1
    30     3    30    1
    31     4    31    1
    32     4    32    1
    33     5    33    1
    34     5    34    1
    35     9    35    1
    36    12    36    1
    37    12    37    1
    38    12    38    1
@<TRIPOS>SUBSTRUCTURE
     1 <0>         1 TEMP              0 ****  ****    0 ROOT

