
##########                                Name:        AT1_258_1VSO
##########                    Molecular_Weight:             320.239
##########                DOCK_Rotatable_Bonds:                   7
##########                       Formal_Charge:             -1.9998
##########                     HBond_Acceptors:                   9
##########                        HBond_Donors:                   3
##########                         Heavy_Atoms:                  21
##########                            HA_RMSDs:              11.384
##########                            HA_RMSDh:              11.348
##########                            HA_RMSDm:               9.847
##########                          Grid_Score:           36.470455
##########                     Grid_vdw_energy:          -12.903088
##########                      Grid_es_energy:           49.373543
##########           Internal_energy_repulsive:           13.240562

@<TRIPOS>MOLECULE
AT1_258_1VSO
 38 38 1 0 0
SMALL
USER_CHARGES


@<TRIPOS>ATOM
      1 C1         34.7005    0.5577    4.8439 C.3     1  <0>        -0.0541
      2 C2         34.6516    1.8433    2.7003 C.3     1  <0>        -0.0541
      3 C3         32.9525    2.2705    4.4537 C.3     1  <0>        -0.0541
      4 C4         30.5073    0.7900    2.3701 C.3     1  <0>         0.0271
      5 C5         30.0927   -3.3276    2.3577 C.3     1  <0>         0.0830
      6 C6         31.6818   -0.1076    2.6213 C.2     1  <0>         0.0385
      7 C7         32.9408    0.0650    3.1618 C.2     1  <0>         0.0984
      8 C8         31.6578   -1.5025    2.2945 C.2     1  <0>         0.2008
      9 C9         30.0250    0.8482    0.9181 C.3     1  <0>         0.0202
     10 C10        28.4657    0.6106    0.8209 C.2     1  <0>         0.0897
     11 C11        33.7825    1.1914    3.7711 C.3     1  <0>         0.0117
     12 N1         30.3460    2.2029    0.2692 N.4     1  <0>         0.2251
     13 N2         32.7712   -2.1324    2.5870 N.2     1  <0>        -0.1019
     14 O1         27.8119    1.3767    0.0489 O.co2   1  <0>        -0.5442
     15 O2         28.3823   -5.2715    1.9593 O.3     1  <0>        -0.8113
     16 O3         27.4629   -2.9543    1.8717 O.3     1  <0>        -0.8113
     17 O4         27.9792   -0.3186    1.5064 O.co2   1  <0>        -0.5442
     18 O5         28.9256   -3.8048   -0.0250 O.2     1  <0>        -0.3512
     19 O6         33.5972   -1.1282    3.1424 O.3     1  <0>        -0.2138
     20 O7         30.5711   -2.0825    1.7497 O.3     1  <0>        -0.3211
     21 P1         28.6407   -3.8866    1.4316 P.3     1  <0>        -0.0394
     22 H1         34.0836    0.0842    5.6218 H       1  <0>         0.0239
     23 H2         35.3436   -0.2010    4.3740 H       1  <0>         0.0239
     24 H3         35.3270    1.3393    5.2982 H       1  <0>         0.0239
     25 H4         34.0088    2.2974    1.9319 H       1  <0>         0.0239
     26 H5         35.2783    2.6215    3.1606 H       1  <0>         0.0239
     27 H6         35.2950    1.0811    2.2363 H       1  <0>         0.0239
     28 H7         32.2866    2.7428    3.7165 H       1  <0>         0.0239
     29 H8         32.3499    1.8176    5.2548 H       1  <0>         0.0239
     30 H9         33.6217    3.0307    4.8831 H       1  <0>         0.0239
     31 H10        29.6713    0.4218    2.9829 H       1  <0>         0.0374
     32 H11        30.7997    1.8090    2.6635 H       1  <0>         0.0374
     33 H12        30.8819   -4.0928    2.3148 H       1  <0>         0.0622
     34 H13        29.8213   -3.1509    3.4089 H       1  <0>         0.0622
     35 H14        30.5583    0.0487    0.3829 H       1  <0>         0.0918
     36 H15        30.0184    2.2065   -0.6756 H       1  <0>         0.2001
     37 H16        29.8939    2.9332    0.7813 H       1  <0>         0.2001
     38 H17        31.3349    2.3512    0.2795 H       1  <0>         0.2001
@<TRIPOS>BOND
     1     1    11    1
     2     2    11    1
     3     3    11    1
     4     4     6    1
     5     4     9    1
     6     5    20    1
     7     5    21    1
     8     6     7    2
     9     6     8    1
    10     7    11    1
    11     7    19    1
    12     8    13    2
    13     8    20    1
    14     9    10    1
    15     9    12    1
    16    10    14    1
    17    10    17    2
    18    13    19    1
    19    15    21    1
    20    16    21    1
    21    18    21    2
    22     1    22    1
    23     1    23    1
    24     1    24    1
    25     2    25    1
    26     2    26    1
    27     2    27    1
    28     3    28    1
    29     3    29    1
    30     3    30    1
    31     4    31    1
    32     4    32    1
    33     5    33    1
    34     5    34    1
    35     9    35    1
    36    12    36    1
    37    12    37    1
    38    12    38    1
@<TRIPOS>SUBSTRUCTURE
     1 <0>         1 TEMP              0 ****  ****    0 ROOT

