
##########                                Name:        AT1_258_1VSO
##########                    Molecular_Weight:             320.239
##########                DOCK_Rotatable_Bonds:                   7
##########                       Formal_Charge:             -1.9998
##########                     HBond_Acceptors:                   9
##########                        HBond_Donors:                   3
##########                         Heavy_Atoms:                  21
##########                            HA_RMSDs:              10.932
##########                            HA_RMSDh:              10.932
##########                            HA_RMSDm:               9.380
##########                          Grid_Score:           30.787888
##########                     Grid_vdw_energy:          -17.537392
##########                      Grid_es_energy:           48.325279
##########           Internal_energy_repulsive:            8.213559

@<TRIPOS>MOLECULE
AT1_258_1VSO
 38 38 1 0 0
SMALL
USER_CHARGES


@<TRIPOS>ATOM
      1 C1         33.7550    2.5327    4.4430 C.3     1  <0>        -0.0541
      2 C2         34.6764    0.2972    5.0784 C.3     1  <0>        -0.0541
      3 C3         34.9451    1.1493    2.7663 C.3     1  <0>        -0.0541
      4 C4         32.7065   -2.0790    2.8749 C.3     1  <0>         0.0271
      5 C5         28.9927   -2.0386    3.7249 C.3     1  <0>         0.0830
      6 C6         32.1206   -0.7393    3.2071 C.2     1  <0>         0.0385
      7 C7         32.6356    0.4714    3.6268 C.2     1  <0>         0.0984
      8 C8         30.7154   -0.4772    3.1090 C.2     1  <0>         0.2008
      9 C9         32.5235   -3.1584    3.9452 C.3     1  <0>         0.0202
     10 C10        32.7454   -4.6041    3.3467 C.2     1  <0>         0.0897
     11 C11        34.0007    1.0833    3.9592 C.3     1  <0>         0.0117
     12 N1         33.5012   -2.9672    5.1144 N.4     1  <0>         0.2251
     13 N2         30.3831    0.7497    3.4352 N.2     1  <0>        -0.1019
     14 O1         33.8641   -5.1580    3.5747 O.co2   1  <0>        -0.5442
     15 O2         26.4974   -2.1844    2.9404 O.3     1  <0>        -0.8113
     16 O3         28.2011   -3.1475    1.3935 O.3     1  <0>        -0.8113
     17 O4         31.8037   -5.1091    2.6924 O.co2   1  <0>        -0.5442
     18 O5         27.6297   -4.3582    3.5542 O.2     1  <0>        -0.3512
     19 O6         31.6137    1.3604    3.7695 O.3     1  <0>        -0.2138
     20 O7         29.8462   -1.4232    2.7042 O.3     1  <0>        -0.3211
     21 P1         27.7366   -3.0356    2.8842 P.3     1  <0>        -0.0394
     22 H1         33.2676    3.1092    3.6430 H       1  <0>         0.0239
     23 H2         33.1063    2.5176    5.3312 H       1  <0>         0.0239
     24 H3         34.7166    3.0015    4.6990 H       1  <0>         0.0239
     25 H4         34.8559   -0.7355    4.7450 H       1  <0>         0.0239
     26 H5         35.6355    0.7722    5.3326 H       1  <0>         0.0239
     27 H6         34.0251    0.2881    5.9649 H       1  <0>         0.0239
     28 H7         35.1412    0.1321    2.3966 H       1  <0>         0.0239
     29 H8         34.4840    1.7474    1.9665 H       1  <0>         0.0239
     30 H9         35.8923    1.6163    3.0742 H       1  <0>         0.0239
     31 H10        32.2179   -2.4363    1.9564 H       1  <0>         0.0374
     32 H11        33.7874   -1.9404    2.7249 H       1  <0>         0.0374
     33 H12        29.5986   -2.6776    4.3842 H       1  <0>         0.0622
     34 H13        28.5083   -1.2573    4.3288 H       1  <0>         0.0622
     35 H14        31.4904   -3.0601    4.3100 H       1  <0>         0.0918
     36 H15        33.3548   -3.6869    5.7931 H       1  <0>         0.2001
     37 H16        34.4405   -3.0156    4.7747 H       1  <0>         0.2001
     38 H17        33.3449   -2.0743    5.5368 H       1  <0>         0.2001
@<TRIPOS>BOND
     1     1    11    1
     2     2    11    1
     3     3    11    1
     4     4     6    1
     5     4     9    1
     6     5    20    1
     7     5    21    1
     8     6     7    2
     9     6     8    1
    10     7    11    1
    11     7    19    1
    12     8    13    2
    13     8    20    1
    14     9    10    1
    15     9    12    1
    16    10    14    1
    17    10    17    2
    18    13    19    1
    19    15    21    1
    20    16    21    1
    21    18    21    2
    22     1    22    1
    23     1    23    1
    24     1    24    1
    25     2    25    1
    26     2    26    1
    27     2    27    1
    28     3    28    1
    29     3    29    1
    30     3    30    1
    31     4    31    1
    32     4    32    1
    33     5    33    1
    34     5    34    1
    35     9    35    1
    36    12    36    1
    37    12    37    1
    38    12    38    1
@<TRIPOS>SUBSTRUCTURE
     1 <0>         1 TEMP              0 ****  ****    0 ROOT

