
##########                                Name:          FR6_1_2E1W
##########                    Molecular_Weight:             323.395
##########                DOCK_Rotatable_Bonds:                   8
##########                       Formal_Charge:        -9.98378e-05
##########                     HBond_Acceptors:                   5
##########                        HBond_Donors:                   3
##########                         Heavy_Atoms:                  24
##########                            HA_RMSDs:               0.985
##########                            HA_RMSDh:               0.985
##########                            HA_RMSDm:               0.881
##########                          Grid_Score:          -51.383003
##########                     Grid_vdw_energy:          -49.563393
##########                      Grid_es_energy:           -1.819612
##########           Internal_energy_repulsive:            9.736823

@<TRIPOS>MOLECULE
FR6_1_2E1W
 45 47 1 0 0
SMALL
USER_CHARGES


@<TRIPOS>ATOM
      1 C1         53.3914   58.2934   20.5290 C.3     1  <0>        -0.0372
      2 C2         47.7161   56.7584   15.7399 C.ar    1  <0>        -0.0612
      3 C3         48.2378   55.8694   16.6866 C.ar    1  <0>        -0.0612
      4 C4         47.0482   60.1120   19.1530 C.ar    1  <0>        -0.0609
      5 C5         47.3086   58.0369   16.1195 C.ar    1  <0>        -0.0540
      6 C6         48.4230   56.2806   18.0197 C.ar    1  <0>        -0.0538
      7 C7         47.0064   59.7130   17.8159 C.ar    1  <0>        -0.0540
      8 C8         47.6482   59.2822   20.1026 C.ar    1  <0>        -0.0580
      9 C9         51.8707   54.8016   20.3610 C.2     1  <0>         0.0284
     10 C10        51.5398   54.6899   22.6033 C.2     1  <0>         0.0889
     11 C11        48.9272   57.2015   20.7795 C.3     1  <0>        -0.0253
     12 C12        50.4410   57.5261   20.6052 C.3     1  <0>        -0.0276
     13 C13        47.4775   58.4400   17.4552 C.ar    1  <0>        -0.0176
     14 C14        48.1170   57.9990   19.7661 C.ar    1  <0>        -0.0396
     15 C15        48.0600   57.5923   18.4116 C.ar    1  <0>        -0.0147
     16 C16        52.0923   53.5327   20.7439 C.2     1  <0>         0.1405
     17 C17        52.7523   57.8070   21.8578 C.3     1  <0>         0.0713
     18 C18        51.3857   57.0000   21.7073 C.3     1  <0>         0.0548
     19 C19        52.4110   52.3501   19.8883 C.2     1  <0>         0.2611
     20 N1         52.2010   51.1651   20.4155 N.am    1  <0>        -0.3241
     21 N2         51.9449   53.4637   22.2136 N.2     1  <0>        -0.2337
     22 N3         51.5767   55.5567   21.5902 N.pl3   1  <0>        -0.2898
     23 O1         53.8276   57.2763   22.7106 O.3     1  <0>        -0.3902
     24 O2         52.9314   52.4098   18.7842 O.2     1  <0>        -0.2687
     25 H1         54.3238   58.8350   20.7467 H       1  <0>         0.0255
     26 H2         53.6122   57.4260   19.8894 H       1  <0>         0.0255
     27 H3         52.6909   58.9636   20.0092 H       1  <0>         0.0255
     28 H4         47.6285   56.4520   14.7080 H       1  <0>         0.0618
     29 H5         48.4994   54.8636   16.3929 H       1  <0>         0.0618
     30 H6         46.6189   61.0570   19.4514 H       1  <0>         0.0618
     31 H7         46.8692   58.7083   15.3967 H       1  <0>         0.0624
     32 H8         48.8416   55.5966   18.7432 H       1  <0>         0.0624
     33 H9         46.6138   60.3799   17.0626 H       1  <0>         0.0624
     34 H10        47.7549   59.6335   21.1183 H       1  <0>         0.0620
     35 H11        51.9021   55.1897   19.3536 H       1  <0>         0.0807
     36 H12        51.2261   54.9380   23.6066 H       1  <0>         0.1003
     37 H13        48.7616   56.1263   20.6168 H       1  <0>         0.0314
     38 H14        48.6090   57.4715   21.7973 H       1  <0>         0.0314
     39 H15        50.7642   57.0745   19.6557 H       1  <0>         0.0287
     40 H16        50.5395   58.6216   20.5868 H       1  <0>         0.0287
     41 H17        52.3195   58.6474   22.4204 H       1  <0>         0.0609
     42 H18        50.8727   57.1924   22.6612 H       1  <0>         0.0529
     43 H19        52.4655   50.3409   19.9147 H       1  <0>         0.1453
     44 H20        51.7767   51.0874   21.3177 H       1  <0>         0.1453
     45 H21        53.4692   57.0270   23.5544 H       1  <0>         0.2098
@<TRIPOS>BOND
     1     1    17    1
     2     2     3   ar
     3     2     5   ar
     4     3     6   ar
     5     4     7   ar
     6     4     8   ar
     7     5    13   ar
     8     6    15   ar
     9     7    13   ar
    10     8    14   ar
    11     9    16    2
    12     9    22    1
    13    10    21    2
    14    10    22    1
    15    11    12    1
    16    11    14    1
    17    12    18    1
    18    13    15   ar
    19    14    15   ar
    20    16    19    1
    21    16    21    1
    22    17    18    1
    23    17    23    1
    24    18    22    1
    25    19    20   am
    26    19    24    2
    27     1    25    1
    28     1    26    1
    29     1    27    1
    30     2    28    1
    31     3    29    1
    32     4    30    1
    33     5    31    1
    34     6    32    1
    35     7    33    1
    36     8    34    1
    37     9    35    1
    38    10    36    1
    39    11    37    1
    40    11    38    1
    41    12    39    1
    42    12    40    1
    43    17    41    1
    44    18    42    1
    45    20    43    1
    46    20    44    1
    47    23    45    1
@<TRIPOS>SUBSTRUCTURE
     1 <0>         1 TEMP              0 ****  ****    0 ROOT

