
##########                                Name:          FR6_1_2E1W
##########                    Molecular_Weight:             323.395
##########                DOCK_Rotatable_Bonds:                   8
##########                       Formal_Charge:        -9.98378e-05
##########                     HBond_Acceptors:                   5
##########                        HBond_Donors:                   3
##########                         Heavy_Atoms:                  24
##########                            HA_RMSDs:               0.773
##########                            HA_RMSDh:               0.773
##########                            HA_RMSDm:               0.759
##########                          Grid_Score:          -52.179222
##########                     Grid_vdw_energy:          -49.091812
##########                      Grid_es_energy:           -3.087409
##########           Internal_energy_repulsive:            9.060169

@<TRIPOS>MOLECULE
FR6_1_2E1W
 45 47 1 0 0
SMALL
USER_CHARGES


@<TRIPOS>ATOM
      1 C1         53.7164   57.8574   20.5490 C.3     1  <0>        -0.0372
      2 C2         47.9921   56.2787   15.8734 C.ar    1  <0>        -0.0612
      3 C3         48.5219   55.4793   16.8927 C.ar    1  <0>        -0.0612
      4 C4         47.1323   59.8433   19.0193 C.ar    1  <0>        -0.0609
      5 C5         47.5328   57.5659   16.1506 C.ar    1  <0>        -0.0540
      6 C6         48.6623   55.9917   18.1959 C.ar    1  <0>        -0.0538
      7 C7         47.1348   59.3479   17.7142 C.ar    1  <0>        -0.0540
      8 C8         47.7383   59.1058   20.0387 C.ar    1  <0>        -0.0580
      9 C9         51.9936   54.6769   20.5010 C.2     1  <0>         0.0284
     10 C10        51.7078   54.6488   22.7521 C.2     1  <0>         0.0889
     11 C11        49.0713   57.1260   20.8912 C.3     1  <0>        -0.0253
     12 C12        50.5860   57.4167   20.6704 C.3     1  <0>        -0.0276
     13 C13        47.6571   58.0698   17.4567 C.ar    1  <0>        -0.0176
     14 C14        48.2580   57.8192   19.8061 C.ar    1  <0>        -0.0396
     15 C15        48.2460   57.3143   18.4839 C.ar    1  <0>        -0.0147
     16 C16        52.2172   53.4217   20.9255 C.2     1  <0>         0.1405
     17 C17        52.9186   57.7299   21.8749 C.3     1  <0>         0.0713
     18 C18        51.5458   56.9254   21.7755 C.3     1  <0>         0.0548
     19 C19        52.5131   52.2070   20.1075 C.2     1  <0>         0.2611
     20 N1         52.3700   51.0443   20.7024 N.am    1  <0>        -0.3241
     21 N2         52.0993   53.4071   22.3994 N.2     1  <0>        -0.2337
     22 N3         51.7279   55.4779   21.7074 N.pl3   1  <0>        -0.2898
     23 O1         53.8736   57.4212   22.9509 O.3     1  <0>        -0.3902
     24 O2         52.9602   52.2257   18.9703 O.2     1  <0>        -0.2687
     25 H1         54.6401   58.4268   20.7296 H       1  <0>         0.0255
     26 H2         53.9710   56.8542   20.1765 H       1  <0>         0.0255
     27 H3         53.1031   58.3815   19.8012 H       1  <0>         0.0255
     28 H4         47.9387   55.8960   14.8649 H       1  <0>         0.0618
     29 H5         48.8241   54.4649   16.6783 H       1  <0>         0.0618
     30 H6         46.6643   60.7915   19.2394 H       1  <0>         0.0618
     31 H7         47.0875   58.1675   15.3721 H       1  <0>         0.0624
     32 H8         49.0872   55.3768   18.9756 H       1  <0>         0.0624
     33 H9         46.7372   59.9445   16.9065 H       1  <0>         0.0624
     34 H10        47.8096   59.5328   21.0282 H       1  <0>         0.0620
     35 H11        52.0063   55.0279   19.4797 H       1  <0>         0.0807
     36 H12        51.4157   54.9349   23.7517 H       1  <0>         0.1003
     37 H13        48.8955   56.0412   20.8445 H       1  <0>         0.0314
     38 H14        48.7651   57.5049   21.8774 H       1  <0>         0.0314
     39 H15        50.8812   56.9169   19.7361 H       1  <0>         0.0287
     40 H16        50.7015   58.5084   20.5997 H       1  <0>         0.0287
     41 H17        52.4606   58.6898   22.1557 H       1  <0>         0.0609
     42 H18        51.0494   57.1549   22.7299 H       1  <0>         0.0529
     43 H19        52.6247   50.2034   20.2247 H       1  <0>         0.1453
     44 H20        52.0065   51.0002   21.6330 H       1  <0>         0.1453
     45 H21        53.4507   57.5383   23.7934 H       1  <0>         0.2098
@<TRIPOS>BOND
     1     1    17    1
     2     2     3   ar
     3     2     5   ar
     4     3     6   ar
     5     4     7   ar
     6     4     8   ar
     7     5    13   ar
     8     6    15   ar
     9     7    13   ar
    10     8    14   ar
    11     9    16    2
    12     9    22    1
    13    10    21    2
    14    10    22    1
    15    11    12    1
    16    11    14    1
    17    12    18    1
    18    13    15   ar
    19    14    15   ar
    20    16    19    1
    21    16    21    1
    22    17    18    1
    23    17    23    1
    24    18    22    1
    25    19    20   am
    26    19    24    2
    27     1    25    1
    28     1    26    1
    29     1    27    1
    30     2    28    1
    31     3    29    1
    32     4    30    1
    33     5    31    1
    34     6    32    1
    35     7    33    1
    36     8    34    1
    37     9    35    1
    38    10    36    1
    39    11    37    1
    40    11    38    1
    41    12    39    1
    42    12    40    1
    43    17    41    1
    44    18    42    1
    45    20    43    1
    46    20    44    1
    47    23    45    1
@<TRIPOS>SUBSTRUCTURE
     1 <0>         1 TEMP              0 ****  ****    0 ROOT

