
##########                                Name:          FR6_1_2E1W
##########                    Molecular_Weight:             323.395
##########                DOCK_Rotatable_Bonds:                   8
##########                       Formal_Charge:        -9.98378e-05
##########                     HBond_Acceptors:                   5
##########                        HBond_Donors:                   3
##########                         Heavy_Atoms:                  24
##########                            HA_RMSDs:               0.879
##########                            HA_RMSDh:               0.879
##########                            HA_RMSDm:               0.705
##########                          Grid_Score:          -52.892677
##########                     Grid_vdw_energy:          -50.419247
##########                      Grid_es_energy:           -2.473431
##########           Internal_energy_repulsive:           10.925209

@<TRIPOS>MOLECULE
FR6_1_2E1W
 45 47 1 0 0
SMALL
USER_CHARGES


@<TRIPOS>ATOM
      1 C1         53.9856   57.5338   20.5288 C.3     1  <0>        -0.0372
      2 C2         48.5719   54.0460   16.6923 C.ar    1  <0>        -0.0612
      3 C3         48.9738   53.7820   18.0065 C.ar    1  <0>        -0.0612
      4 C4         47.7120   58.6673   17.8084 C.ar    1  <0>        -0.0609
      5 C5         48.1760   55.3297   16.3181 C.ar    1  <0>        -0.0540
      6 C6         49.0508   54.8251   18.9482 C.ar    1  <0>        -0.0538
      7 C7         47.7786   57.6351   16.8709 C.ar    1  <0>        -0.0540
      8 C8         48.1937   58.4569   19.1023 C.ar    1  <0>        -0.0580
      9 C9         52.1015   54.5266   20.8307 C.2     1  <0>         0.0284
     10 C10        51.5950   54.7292   23.0335 C.2     1  <0>         0.0889
     11 C11        49.3326   57.0462   20.8732 C.3     1  <0>        -0.0253
     12 C12        50.8442   57.3948   20.7287 C.3     1  <0>        -0.0276
     13 C13        48.2362   56.3670   17.2645 C.ar    1  <0>        -0.0176
     14 C14        48.6464   57.1924   19.5215 C.ar    1  <0>        -0.0396
     15 C15        48.6992   56.1444   18.5717 C.ar    1  <0>        -0.0147
     16 C16        52.1491   53.2990   21.3754 C.2     1  <0>         0.1405
     17 C17        53.2181   57.5800   21.8777 C.3     1  <0>         0.0713
     18 C18        51.7700   56.9135   21.8667 C.3     1  <0>         0.0548
     19 C19        52.3944   51.9927   20.6931 C.2     1  <0>         0.2611
     20 N1         52.0365   50.9092   21.3443 N.am    1  <0>        -0.3241
     21 N2         51.8865   53.4288   22.8247 N.2     1  <0>        -0.2337
     22 N3         51.8046   55.4549   21.9342 N.pl3   1  <0>        -0.2898
     23 O1         54.1687   57.2518   22.9518 O.3     1  <0>        -0.3902
     24 O2         52.9796   51.8628   19.6281 O.2     1  <0>        -0.2687
     25 H1         54.9662   58.0180   20.6475 H       1  <0>         0.0255
     26 H2         54.1285   56.4865   20.2241 H       1  <0>         0.0255
     27 H3         53.4059   58.0641   19.7589 H       1  <0>         0.0255
     28 H4         48.5682   53.2497   15.9626 H       1  <0>         0.0618
     29 H5         49.2260   52.7736   18.2994 H       1  <0>         0.0618
     30 H6         47.2903   59.6232   17.5347 H       1  <0>         0.0618
     31 H7         47.8280   55.5243   15.3144 H       1  <0>         0.0624
     32 H8         49.3776   54.6197   19.9569 H       1  <0>         0.0624
     33 H9         47.4797   57.8109   15.8481 H       1  <0>         0.0624
     34 H10        48.2194   59.2835   19.7968 H       1  <0>         0.0620
     35 H11        52.2511   54.7812   19.7918 H       1  <0>         0.0807
     36 H12        51.2380   55.1311   23.9702 H       1  <0>         0.1003
     37 H13        49.2274   56.0102   21.2277 H       1  <0>         0.0314
     38 H14        48.8660   57.7305   21.5971 H       1  <0>         0.0314
     39 H15        51.1995   56.9262   19.7991 H       1  <0>         0.0287
     40 H16        50.9234   58.4911   20.6855 H       1  <0>         0.0287
     41 H17        52.8660   58.5985   22.0987 H       1  <0>         0.0609
     42 H18        51.3166   57.2800   22.7995 H       1  <0>         0.0529
     43 H19        52.2441   50.0070   20.9662 H       1  <0>         0.1453
     44 H20        51.5563   50.9867   22.2181 H       1  <0>         0.1453
     45 H21        53.6952   57.1185   23.7645 H       1  <0>         0.2098
@<TRIPOS>BOND
     1     1    17    1
     2     2     3   ar
     3     2     5   ar
     4     3     6   ar
     5     4     7   ar
     6     4     8   ar
     7     5    13   ar
     8     6    15   ar
     9     7    13   ar
    10     8    14   ar
    11     9    16    2
    12     9    22    1
    13    10    21    2
    14    10    22    1
    15    11    12    1
    16    11    14    1
    17    12    18    1
    18    13    15   ar
    19    14    15   ar
    20    16    19    1
    21    16    21    1
    22    17    18    1
    23    17    23    1
    24    18    22    1
    25    19    20   am
    26    19    24    2
    27     1    25    1
    28     1    26    1
    29     1    27    1
    30     2    28    1
    31     3    29    1
    32     4    30    1
    33     5    31    1
    34     6    32    1
    35     7    33    1
    36     8    34    1
    37     9    35    1
    38    10    36    1
    39    11    37    1
    40    11    38    1
    41    12    39    1
    42    12    40    1
    43    17    41    1
    44    18    42    1
    45    20    43    1
    46    20    44    1
    47    23    45    1
@<TRIPOS>SUBSTRUCTURE
     1 <0>         1 TEMP              0 ****  ****    0 ROOT

