
##########                                Name:          FR6_1_2E1W
##########                    Molecular_Weight:             323.395
##########                DOCK_Rotatable_Bonds:                   8
##########                       Formal_Charge:        -9.98378e-05
##########                     HBond_Acceptors:                   5
##########                        HBond_Donors:                   3
##########                         Heavy_Atoms:                  24
##########                            HA_RMSDs:               0.990
##########                            HA_RMSDh:               0.957
##########                            HA_RMSDm:               0.811
##########                          Grid_Score:          -52.534760
##########                     Grid_vdw_energy:          -49.259480
##########                      Grid_es_energy:           -3.275281
##########           Internal_energy_repulsive:           11.958888

@<TRIPOS>MOLECULE
FR6_1_2E1W
 45 47 1 0 0
SMALL
USER_CHARGES


@<TRIPOS>ATOM
      1 C1         53.6990   57.7026   20.6048 C.3     1  <0>        -0.0372
      2 C2         47.6542   56.9812   15.5611 C.ar    1  <0>        -0.0612
      3 C3         48.2371   55.9435   16.2973 C.ar    1  <0>        -0.0612
      4 C4         47.2365   59.6725   19.5515 C.ar    1  <0>        -0.0609
      5 C5         47.2786   58.1688   16.1881 C.ar    1  <0>        -0.0540
      6 C6         48.5158   56.1141   17.6661 C.ar    1  <0>        -0.0538
      7 C7         47.1007   59.5159   18.1710 C.ar    1  <0>        -0.0540
      8 C8         47.8980   58.6932   20.2956 C.ar    1  <0>        -0.0580
      9 C9         52.0200   54.3243   20.5726 C.2     1  <0>         0.0284
     10 C10        51.6771   54.3961   22.8147 C.2     1  <0>         0.0889
     11 C11        49.2133   56.5369   20.5040 C.3     1  <0>        -0.0253
     12 C12        50.6745   57.0767   20.5390 C.3     1  <0>        -0.0276
     13 C13        47.5411   58.3309   17.5592 C.ar    1  <0>        -0.0176
     14 C14        48.3377   57.4939   19.7059 C.ar    1  <0>        -0.0396
     15 C15        48.1855   57.3326   18.3080 C.ar    1  <0>        -0.0147
     16 C16        52.2315   53.0892   21.0579 C.2     1  <0>         0.1405
     17 C17        52.9053   57.4345   21.9120 C.3     1  <0>         0.0713
     18 C18        51.5422   56.6271   21.7343 C.3     1  <0>         0.0548
     19 C19        52.5469   51.8394   20.3023 C.2     1  <0>         0.2611
     20 N1         52.4882   50.7117   20.9740 N.am    1  <0>        -0.3241
     21 N2         52.0762   53.1400   22.5275 N.2     1  <0>        -0.2337
     22 N3         51.7246   55.1780   21.7352 N.pl3   1  <0>        -0.2898
     23 O1         53.8660   57.0323   22.9515 O.3     1  <0>        -0.3902
     24 O2         52.9386   51.8058   19.1452 O.2     1  <0>        -0.2687
     25 H1         54.6161   58.2625   20.8403 H       1  <0>         0.0255
     26 H2         53.9651   56.7444   20.1345 H       1  <0>         0.0255
     27 H3         53.0780   58.2907   19.9131 H       1  <0>         0.0255
     28 H4         47.4942   56.8613   14.4997 H       1  <0>         0.0618
     29 H5         48.4741   55.0077   15.8129 H       1  <0>         0.0618
     30 H6         46.8323   60.5462   20.0413 H       1  <0>         0.0618
     31 H7         46.7925   58.9535   15.6275 H       1  <0>         0.0624
     32 H8         48.9811   55.3166   18.2266 H       1  <0>         0.0624
     33 H9         46.6591   60.3020   17.5765 H       1  <0>         0.0624
     34 H10        48.0761   58.8603   21.3477 H       1  <0>         0.0620
     35 H11        52.0590   54.6296   19.5373 H       1  <0>         0.0807
     36 H12        51.3599   54.7262   23.7929 H       1  <0>         0.1003
     37 H13        49.2002   55.5450   20.0287 H       1  <0>         0.0314
     38 H14        48.8273   56.4566   21.5309 H       1  <0>         0.0314
     39 H15        51.1736   56.7263   19.6236 H       1  <0>         0.0287
     40 H16        50.6158   58.1746   20.5733 H       1  <0>         0.0287
     41 H17        52.4362   58.3561   22.2870 H       1  <0>         0.0609
     42 H18        50.9724   56.8923   22.6371 H       1  <0>         0.0529
     43 H19        52.7604   49.8545   20.5367 H       1  <0>         0.1453
     44 H20        52.1714   50.7106   21.9225 H       1  <0>         0.1453
     45 H21        53.4873   57.1845   23.8093 H       1  <0>         0.2098
@<TRIPOS>BOND
     1     1    17    1
     2     2     3   ar
     3     2     5   ar
     4     3     6   ar
     5     4     7   ar
     6     4     8   ar
     7     5    13   ar
     8     6    15   ar
     9     7    13   ar
    10     8    14   ar
    11     9    16    2
    12     9    22    1
    13    10    21    2
    14    10    22    1
    15    11    12    1
    16    11    14    1
    17    12    18    1
    18    13    15   ar
    19    14    15   ar
    20    16    19    1
    21    16    21    1
    22    17    18    1
    23    17    23    1
    24    18    22    1
    25    19    20   am
    26    19    24    2
    27     1    25    1
    28     1    26    1
    29     1    27    1
    30     2    28    1
    31     3    29    1
    32     4    30    1
    33     5    31    1
    34     6    32    1
    35     7    33    1
    36     8    34    1
    37     9    35    1
    38    10    36    1
    39    11    37    1
    40    11    38    1
    41    12    39    1
    42    12    40    1
    43    17    41    1
    44    18    42    1
    45    20    43    1
    46    20    44    1
    47    23    45    1
@<TRIPOS>SUBSTRUCTURE
     1 <0>         1 TEMP              0 ****  ****    0 ROOT

