
##########                                Name:          FR6_1_2E1W
##########                    Molecular_Weight:             323.395
##########                DOCK_Rotatable_Bonds:                   8
##########                       Formal_Charge:        -9.98378e-05
##########                     HBond_Acceptors:                   5
##########                        HBond_Donors:                   3
##########                         Heavy_Atoms:                  24
##########                            HA_RMSDs:               1.041
##########                            HA_RMSDh:               1.041
##########                            HA_RMSDm:               1.002
##########                          Grid_Score:          -51.423618
##########                     Grid_vdw_energy:          -49.115078
##########                      Grid_es_energy:           -2.308541
##########           Internal_energy_repulsive:           10.661223

@<TRIPOS>MOLECULE
FR6_1_2E1W
 45 47 1 0 0
SMALL
USER_CHARGES


@<TRIPOS>ATOM
      1 C1         53.5980   57.6983   20.5773 C.3     1  <0>        -0.0372
      2 C2         47.6849   56.3116   15.6600 C.ar    1  <0>        -0.0612
      3 C3         48.1350   55.4452   16.6627 C.ar    1  <0>        -0.0612
      4 C4         47.3347   59.9283   18.8441 C.ar    1  <0>        -0.0609
      5 C5         47.3922   57.6428   15.9546 C.ar    1  <0>        -0.0540
      6 C6         48.3650   55.9258   17.9652 C.ar    1  <0>        -0.0538
      7 C7         47.2486   59.4470   17.5365 C.ar    1  <0>        -0.0540
      8 C8         47.8680   59.1141   19.8456 C.ar    1  <0>        -0.0580
      9 C9         51.7345   54.4904   20.0190 C.2     1  <0>         0.0284
     10 C10        51.6487   54.2018   22.2683 C.2     1  <0>         0.0889
     11 C11        48.9674   56.9795   20.6569 C.3     1  <0>        -0.0253
     12 C12        50.4995   57.2188   20.5051 C.3     1  <0>        -0.0276
     13 C13        47.6053   58.1170   17.2603 C.ar    1  <0>        -0.0176
     14 C14        48.2216   57.7756   19.5942 C.ar    1  <0>        -0.0396
     15 C15        48.1195   57.2869   18.2698 C.ar    1  <0>        -0.0147
     16 C16        51.9935   53.1969   20.2750 C.2     1  <0>         0.1405
     17 C17        52.7758   57.3394   21.8445 C.3     1  <0>         0.0713
     18 C18        51.4031   56.5737   21.5781 C.3     1  <0>         0.0548
     19 C19        52.2150   52.0868   19.2999 C.2     1  <0>         0.2611
     20 N1         52.1640   50.8631   19.7756 N.am    1  <0>        -0.3241
     21 N2         52.0064   53.0123   21.7421 N.2     1  <0>        -0.2337
     22 N3         51.5772   55.1453   21.3282 N.pl3   1  <0>        -0.2898
     23 O1         53.7102   56.8369   22.8641 O.3     1  <0>        -0.3902
     24 O2         52.5260   52.2413   18.1282 O.2     1  <0>        -0.2687
     25 H1         54.5198   58.2207   20.8734 H       1  <0>         0.0255
     26 H2         53.8570   56.7768   20.0352 H       1  <0>         0.0255
     27 H3         52.9999   58.3517   19.9251 H       1  <0>         0.0255
     28 H4         47.5634   55.9465   14.6508 H       1  <0>         0.0618
     29 H5         48.3065   54.4033   16.4359 H       1  <0>         0.0618
     30 H6         46.9908   60.9246   19.0799 H       1  <0>         0.0618
     31 H7         47.0070   58.3006   15.1896 H       1  <0>         0.0624
     32 H8         48.7283   55.2573   18.7318 H       1  <0>         0.0624
     33 H9         46.9094   60.0943   16.7413 H       1  <0>         0.0624
     34 H10        48.0122   59.5210   20.8356 H       1  <0>         0.0620
     35 H11        51.6572   54.9562   19.0477 H       1  <0>         0.0807
     36 H12        51.4462   54.3687   23.3160 H       1  <0>         0.1003
     37 H13        48.7495   55.9085   20.5330 H       1  <0>         0.0314
     38 H14        48.6423   57.3066   21.6556 H       1  <0>         0.0314
     39 H15        50.7998   56.8022   19.5324 H       1  <0>         0.0287
     40 H16        50.6658   58.3054   20.5491 H       1  <0>         0.0287
     41 H17        52.3151   58.2358   22.2851 H       1  <0>         0.0609
     42 H18        50.8645   56.6827   22.5310 H       1  <0>         0.0529
     43 H19        52.3770   50.0867   19.1823 H       1  <0>         0.1453
     44 H20        51.9123   50.7081   20.7309 H       1  <0>         0.1453
     45 H21        53.2706   56.7982   23.7054 H       1  <0>         0.2098
@<TRIPOS>BOND
     1     1    17    1
     2     2     3   ar
     3     2     5   ar
     4     3     6   ar
     5     4     7   ar
     6     4     8   ar
     7     5    13   ar
     8     6    15   ar
     9     7    13   ar
    10     8    14   ar
    11     9    16    2
    12     9    22    1
    13    10    21    2
    14    10    22    1
    15    11    12    1
    16    11    14    1
    17    12    18    1
    18    13    15   ar
    19    14    15   ar
    20    16    19    1
    21    16    21    1
    22    17    18    1
    23    17    23    1
    24    18    22    1
    25    19    20   am
    26    19    24    2
    27     1    25    1
    28     1    26    1
    29     1    27    1
    30     2    28    1
    31     3    29    1
    32     4    30    1
    33     5    31    1
    34     6    32    1
    35     7    33    1
    36     8    34    1
    37     9    35    1
    38    10    36    1
    39    11    37    1
    40    11    38    1
    41    12    39    1
    42    12    40    1
    43    17    41    1
    44    18    42    1
    45    20    43    1
    46    20    44    1
    47    23    45    1
@<TRIPOS>SUBSTRUCTURE
     1 <0>         1 TEMP              0 ****  ****    0 ROOT

