
##########                                Name:          FR6_1_2E1W
##########                    Molecular_Weight:             323.395
##########                DOCK_Rotatable_Bonds:                   8
##########                       Formal_Charge:        -9.98378e-05
##########                     HBond_Acceptors:                   5
##########                        HBond_Donors:                   3
##########                         Heavy_Atoms:                  24
##########                            HA_RMSDs:               0.898
##########                            HA_RMSDh:               0.898
##########                            HA_RMSDm:               0.702
##########                          Grid_Score:          -52.226036
##########                     Grid_vdw_energy:          -50.586571
##########                      Grid_es_energy:           -1.639467
##########           Internal_energy_repulsive:           12.256899

@<TRIPOS>MOLECULE
FR6_1_2E1W
 45 47 1 0 0
SMALL
USER_CHARGES


@<TRIPOS>ATOM
      1 C1         54.1939   57.5159   20.4308 C.3     1  <0>        -0.0372
      2 C2         48.7054   54.0713   17.1018 C.ar    1  <0>        -0.0612
      3 C3         49.1758   54.0022   18.4180 C.ar    1  <0>        -0.0612
      4 C4         47.6855   58.7632   17.6379 C.ar    1  <0>        -0.0609
      5 C5         48.2357   55.2767   16.5810 C.ar    1  <0>        -0.0540
      6 C6         49.2462   55.1644   19.2085 C.ar    1  <0>        -0.0538
      7 C7         47.7581   57.6180   16.8430 C.ar    1  <0>        -0.0540
      8 C8         48.2322   58.7475   18.9229 C.ar    1  <0>        -0.0580
      9 C9         52.0636   54.6177   20.7476 C.2     1  <0>         0.0284
     10 C10        51.6935   54.9140   22.9669 C.2     1  <0>         0.0889
     11 C11        49.5101   57.6332   20.8067 C.3     1  <0>        -0.0253
     12 C12        51.0421   57.5349   20.5405 C.3     1  <0>        -0.0276
     13 C13        48.2897   56.4331   17.3779 C.ar    1  <0>        -0.0176
     14 C14        48.7598   57.5695   19.4829 C.ar    1  <0>        -0.0396
     15 C15        48.8188   56.4064   18.6786 C.ar    1  <0>        -0.0147
     16 C16        52.0797   53.4066   21.3298 C.2     1  <0>         0.1405
     17 C17        53.3893   57.6488   21.7520 C.3     1  <0>         0.0713
     18 C18        51.9124   57.0493   21.7197 C.3     1  <0>         0.0548
     19 C19        52.2196   52.0689   20.6792 C.2     1  <0>         0.2611
     20 N1         51.4743   51.0982   21.1573 N.am    1  <0>        -0.3241
     21 N2         51.9064   53.5943   22.7862 N.2     1  <0>        -0.2337
     22 N3         51.8769   55.5937   21.8340 N.pl3   1  <0>        -0.2898
     23 O1         54.2908   57.3187   22.8672 O.3     1  <0>        -0.3902
     24 O2         53.0336   51.8002   19.8082 O.2     1  <0>        -0.2687
     25 H1         55.1921   57.9589   20.5626 H       1  <0>         0.0255
     26 H2         54.2965   56.4522   20.1695 H       1  <0>         0.0255
     27 H3         53.6630   58.0422   19.6238 H       1  <0>         0.0255
     28 H4         48.7062   53.1848   16.4849 H       1  <0>         0.0618
     29 H5         49.4862   53.0529   18.8290 H       1  <0>         0.0618
     30 H6         47.2092   59.6564   17.2613 H       1  <0>         0.0618
     31 H7         47.8357   55.3209   15.5788 H       1  <0>         0.0624
     32 H8         49.6256   55.1093   20.2182 H       1  <0>         0.0624
     33 H9         47.4073   57.6430   15.8219 H       1  <0>         0.0624
     34 H10        48.2505   59.6603   19.4999 H       1  <0>         0.0620
     35 H11        52.1668   54.8321   19.6942 H       1  <0>         0.0807
     36 H12        51.4109   55.3626   23.9079 H       1  <0>         0.1003
     37 H13        49.1949   56.7965   21.4474 H       1  <0>         0.0314
     38 H14        49.2856   58.5852   21.3099 H       1  <0>         0.0314
     39 H15        51.1846   56.8222   19.7148 H       1  <0>         0.0287
     40 H16        51.3915   58.5425   20.2706 H       1  <0>         0.0287
     41 H17        53.0789   58.6900   21.9241 H       1  <0>         0.0609
     42 H18        51.4510   57.4667   22.6269 H       1  <0>         0.0529
     43 H19        51.5811   50.1673   20.8079 H       1  <0>         0.1453
     44 H20        50.8002   51.2902   21.8705 H       1  <0>         0.1453
     45 H21        53.8619   57.5174   23.6911 H       1  <0>         0.2098
@<TRIPOS>BOND
     1     1    17    1
     2     2     3   ar
     3     2     5   ar
     4     3     6   ar
     5     4     7   ar
     6     4     8   ar
     7     5    13   ar
     8     6    15   ar
     9     7    13   ar
    10     8    14   ar
    11     9    16    2
    12     9    22    1
    13    10    21    2
    14    10    22    1
    15    11    12    1
    16    11    14    1
    17    12    18    1
    18    13    15   ar
    19    14    15   ar
    20    16    19    1
    21    16    21    1
    22    17    18    1
    23    17    23    1
    24    18    22    1
    25    19    20   am
    26    19    24    2
    27     1    25    1
    28     1    26    1
    29     1    27    1
    30     2    28    1
    31     3    29    1
    32     4    30    1
    33     5    31    1
    34     6    32    1
    35     7    33    1
    36     8    34    1
    37     9    35    1
    38    10    36    1
    39    11    37    1
    40    11    38    1
    41    12    39    1
    42    12    40    1
    43    17    41    1
    44    18    42    1
    45    20    43    1
    46    20    44    1
    47    23    45    1
@<TRIPOS>SUBSTRUCTURE
     1 <0>         1 TEMP              0 ****  ****    0 ROOT

