
##########                                Name:          FR6_1_2E1W
##########                    Molecular_Weight:             323.395
##########                DOCK_Rotatable_Bonds:                   8
##########                       Formal_Charge:        -9.98378e-05
##########                     HBond_Acceptors:                   5
##########                        HBond_Donors:                   3
##########                         Heavy_Atoms:                  24
##########                            HA_RMSDs:               1.112
##########                            HA_RMSDh:               1.112
##########                            HA_RMSDm:               0.984
##########                          Grid_Score:          -50.727516
##########                     Grid_vdw_energy:          -48.353580
##########                      Grid_es_energy:           -2.373937
##########           Internal_energy_repulsive:           11.211455

@<TRIPOS>MOLECULE
FR6_1_2E1W
 45 47 1 0 0
SMALL
USER_CHARGES


@<TRIPOS>ATOM
      1 C1         53.8546   58.1190   20.6882 C.3     1  <0>        -0.0372
      2 C2         48.6605   54.1684   16.8696 C.ar    1  <0>        -0.0612
      3 C3         49.0319   54.0357   18.2124 C.ar    1  <0>        -0.0612
      4 C4         47.6416   58.8432   17.5400 C.ar    1  <0>        -0.0609
      5 C5         48.2402   55.4009   16.3705 C.ar    1  <0>        -0.0540
      6 C6         49.0530   55.1609   19.0574 C.ar    1  <0>        -0.0538
      7 C7         47.7635   57.7335   16.7019 C.ar    1  <0>        -0.0540
      8 C8         48.0919   58.7644   18.8596 C.ar    1  <0>        -0.0580
      9 C9         52.0988   54.9514   20.2407 C.2     1  <0>         0.0284
     10 C10        51.5760   54.6950   22.4341 C.2     1  <0>         0.0889
     11 C11        49.2182   57.5533   20.7801 C.3     1  <0>        -0.0253
     12 C12        50.7588   57.7275   20.6264 C.3     1  <0>        -0.0276
     13 C13        48.2445   56.5202   17.2204 C.ar    1  <0>        -0.0176
     14 C14        48.5672   57.5569   19.4032 C.ar    1  <0>        -0.0396
     15 C15        48.6760   56.4299   18.5539 C.ar    1  <0>        -0.0147
     16 C16        52.2120   53.6457   20.5377 C.2     1  <0>         0.1405
     17 C17        53.0378   57.7840   21.9654 C.3     1  <0>         0.0713
     18 C18        51.6343   57.0705   21.7153 C.3     1  <0>         0.0548
     19 C19        52.5303   52.5117   19.6184 C.2     1  <0>         0.2611
     20 N1         52.0514   51.3328   19.9460 N.am    1  <0>        -0.3241
     21 N2         51.9387   53.4773   21.9811 N.2     1  <0>        -0.2337
     22 N3         51.7485   55.6305   21.4992 N.pl3   1  <0>        -0.2898
     23 O1         53.9675   57.2426   22.9692 O.3     1  <0>        -0.3902
     24 O2         53.2701   52.5884   18.6488 O.2     1  <0>        -0.2687
     25 H1         54.7990   58.6058   20.9734 H       1  <0>         0.0255
     26 H2         54.0719   57.1914   20.1383 H       1  <0>         0.0255
     27 H3         53.2716   58.7971   20.0476 H       1  <0>         0.0255
     28 H4         48.6997   53.3101   16.2151 H       1  <0>         0.0618
     29 H5         49.3034   53.0657   18.6018 H       1  <0>         0.0618
     30 H6         47.2017   59.7576   17.1700 H       1  <0>         0.0618
     31 H7         47.9157   55.4940   15.3447 H       1  <0>         0.0624
     32 H8         49.3564   55.0569   20.0887 H       1  <0>         0.0624
     33 H9         47.4892   57.8077   15.6599 H       1  <0>         0.0624
     34 H10        48.0748   59.6505   19.4769 H       1  <0>         0.0620
     35 H11        52.2371   55.4105   19.2730 H       1  <0>         0.0807
     36 H12        51.1949   54.8877   23.4261 H       1  <0>         0.1003
     37 H13        49.0055   56.5989   21.2838 H       1  <0>         0.0314
     38 H14        48.8133   58.3823   21.3792 H       1  <0>         0.0314
     39 H15        51.0435   57.2779   19.6637 H       1  <0>         0.0287
     40 H16        50.9686   58.8072   20.6468 H       1  <0>         0.0287
     41 H17        52.6166   58.6945   22.4166 H       1  <0>         0.0609
     42 H18        51.1005   57.2241   22.6647 H       1  <0>         0.0529
     43 H19        52.2946   50.5268   19.4064 H       1  <0>         0.1453
     44 H20        51.4438   51.2416   20.7349 H       1  <0>         0.1453
     45 H21        53.5483   57.2415   23.8217 H       1  <0>         0.2098
@<TRIPOS>BOND
     1     1    17    1
     2     2     3   ar
     3     2     5   ar
     4     3     6   ar
     5     4     7   ar
     6     4     8   ar
     7     5    13   ar
     8     6    15   ar
     9     7    13   ar
    10     8    14   ar
    11     9    16    2
    12     9    22    1
    13    10    21    2
    14    10    22    1
    15    11    12    1
    16    11    14    1
    17    12    18    1
    18    13    15   ar
    19    14    15   ar
    20    16    19    1
    21    16    21    1
    22    17    18    1
    23    17    23    1
    24    18    22    1
    25    19    20   am
    26    19    24    2
    27     1    25    1
    28     1    26    1
    29     1    27    1
    30     2    28    1
    31     3    29    1
    32     4    30    1
    33     5    31    1
    34     6    32    1
    35     7    33    1
    36     8    34    1
    37     9    35    1
    38    10    36    1
    39    11    37    1
    40    11    38    1
    41    12    39    1
    42    12    40    1
    43    17    41    1
    44    18    42    1
    45    20    43    1
    46    20    44    1
    47    23    45    1
@<TRIPOS>SUBSTRUCTURE
     1 <0>         1 TEMP              0 ****  ****    0 ROOT

