
##########                                Name:          FR6_1_2E1W
##########                    Molecular_Weight:             323.395
##########                DOCK_Rotatable_Bonds:                   8
##########                       Formal_Charge:        -9.98378e-05
##########                     HBond_Acceptors:                   5
##########                        HBond_Donors:                   3
##########                         Heavy_Atoms:                  24
##########                            HA_RMSDs:               0.561
##########                            HA_RMSDh:               0.561
##########                            HA_RMSDm:               0.541
##########                          Grid_Score:          -49.025520
##########                     Grid_vdw_energy:          -46.775185
##########                      Grid_es_energy:           -2.250334
##########           Internal_energy_repulsive:            8.791380

@<TRIPOS>MOLECULE
FR6_1_2E1W
 45 47 1 0 0
SMALL
USER_CHARGES


@<TRIPOS>ATOM
      1 C1         53.9884   57.1252   20.1547 C.3     1  <0>        -0.0372
      2 C2         47.9794   56.2536   15.9671 C.ar    1  <0>        -0.0612
      3 C3         48.5289   55.4609   16.9812 C.ar    1  <0>        -0.0612
      4 C4         47.3442   59.9040   19.0674 C.ar    1  <0>        -0.0609
      5 C5         47.5663   57.5583   16.2348 C.ar    1  <0>        -0.0540
      6 C6         48.7361   55.9958   18.2663 C.ar    1  <0>        -0.0538
      7 C7         47.2802   59.3822   17.7743 C.ar    1  <0>        -0.0540
      8 C8         47.9714   59.1712   20.0773 C.ar    1  <0>        -0.0580
      9 C9         52.0061   54.4049   20.8342 C.2     1  <0>         0.0284
     10 C10        51.6226   54.8319   23.0298 C.2     1  <0>         0.0889
     11 C11        49.2849   57.1733   20.9179 C.3     1  <0>        -0.0253
     12 C12        50.7946   57.2971   20.5532 C.3     1  <0>        -0.0276
     13 C13        47.7572   58.0852   17.5236 C.ar    1  <0>        -0.0176
     14 C14        48.4467   57.8663   19.8517 C.ar    1  <0>        -0.0396
     15 C15        48.3672   57.3350   18.5423 C.ar    1  <0>        -0.0147
     16 C16        52.0461   53.2334   21.4913 C.2     1  <0>         0.1405
     17 C17        53.2638   57.4963   21.4768 C.3     1  <0>         0.0713
     18 C18        51.8002   56.8890   21.6513 C.3     1  <0>         0.0548
     19 C19        52.2164   51.8608   20.9263 C.2     1  <0>         0.2611
     20 N1         51.8632   50.8565   21.6962 N.am    1  <0>        -0.3241
     21 N2         51.8641   53.5084   22.9327 N.2     1  <0>        -0.2337
     22 N3         51.7953   55.4429   21.8568 N.pl3   1  <0>        -0.2898
     23 O1         54.2385   57.3884   22.5738 O.3     1  <0>        -0.3902
     24 O2         52.7392   51.6110   19.8502 O.2     1  <0>        -0.2687
     25 H1         54.9837   57.5935   20.1375 H       1  <0>         0.0255
     26 H2         54.0963   56.0324   20.0901 H       1  <0>         0.0255
     27 H3         53.3985   57.4867   19.2995 H       1  <0>         0.0255
     28 H4         47.8747   55.8519   14.9700 H       1  <0>         0.0618
     29 H5         48.7950   54.4344   16.7767 H       1  <0>         0.0618
     30 H6         46.9110   60.8690   19.2857 H       1  <0>         0.0618
     31 H7         47.1057   58.1559   15.4620 H       1  <0>         0.0624
     32 H8         49.1759   55.3855   19.0413 H       1  <0>         0.0624
     33 H9         46.8659   59.9728   16.9706 H       1  <0>         0.0624
     34 H10        48.0945   59.6162   21.0537 H       1  <0>         0.0620
     35 H11        52.1082   54.5550   19.7695 H       1  <0>         0.0807
     36 H12        51.3275   55.3325   23.9401 H       1  <0>         0.1003
     37 H13        49.0062   56.1105   20.9700 H       1  <0>         0.0314
     38 H14        49.1031   57.6483   21.8932 H       1  <0>         0.0314
     39 H15        50.9753   56.6442   19.6865 H       1  <0>         0.0287
     40 H16        50.9862   58.3530   20.3116 H       1  <0>         0.0287
     41 H17        52.9436   58.5487   21.4714 H       1  <0>         0.0609
     42 H18        51.4410   57.3590   22.5787 H       1  <0>         0.0529
     43 H19        52.0240   49.9160   21.3967 H       1  <0>         0.1453
     44 H20        51.4334   51.0325   22.5819 H       1  <0>         0.1453
     45 H21        53.7849   57.4380   23.4070 H       1  <0>         0.2098
@<TRIPOS>BOND
     1     1    17    1
     2     2     3   ar
     3     2     5   ar
     4     3     6   ar
     5     4     7   ar
     6     4     8   ar
     7     5    13   ar
     8     6    15   ar
     9     7    13   ar
    10     8    14   ar
    11     9    16    2
    12     9    22    1
    13    10    21    2
    14    10    22    1
    15    11    12    1
    16    11    14    1
    17    12    18    1
    18    13    15   ar
    19    14    15   ar
    20    16    19    1
    21    16    21    1
    22    17    18    1
    23    17    23    1
    24    18    22    1
    25    19    20   am
    26    19    24    2
    27     1    25    1
    28     1    26    1
    29     1    27    1
    30     2    28    1
    31     3    29    1
    32     4    30    1
    33     5    31    1
    34     6    32    1
    35     7    33    1
    36     8    34    1
    37     9    35    1
    38    10    36    1
    39    11    37    1
    40    11    38    1
    41    12    39    1
    42    12    40    1
    43    17    41    1
    44    18    42    1
    45    20    43    1
    46    20    44    1
    47    23    45    1
@<TRIPOS>SUBSTRUCTURE
     1 <0>         1 TEMP              0 ****  ****    0 ROOT

