
##########                                Name:          FR6_1_2E1W
##########                    Molecular_Weight:             323.395
##########                DOCK_Rotatable_Bonds:                   8
##########                       Formal_Charge:        -9.98378e-05
##########                     HBond_Acceptors:                   5
##########                        HBond_Donors:                   3
##########                         Heavy_Atoms:                  24
##########                            HA_RMSDs:               0.933
##########                            HA_RMSDh:               0.933
##########                            HA_RMSDm:               0.889
##########                          Grid_Score:          -52.178272
##########                     Grid_vdw_energy:          -49.919621
##########                      Grid_es_energy:           -2.258653
##########           Internal_energy_repulsive:            9.495566

@<TRIPOS>MOLECULE
FR6_1_2E1W
 45 47 1 0 0
SMALL
USER_CHARGES


@<TRIPOS>ATOM
      1 C1         53.7175   57.7451   20.3176 C.3     1  <0>        -0.0372
      2 C2         47.6966   56.3822   15.6582 C.ar    1  <0>        -0.0612
      3 C3         48.2382   55.5276   16.6251 C.ar    1  <0>        -0.0612
      4 C4         47.1404   59.8720   18.9527 C.ar    1  <0>        -0.0609
      5 C5         47.3071   57.6775   15.9977 C.ar    1  <0>        -0.0540
      6 C6         48.4616   55.9895   17.9355 C.ar    1  <0>        -0.0538
      7 C7         47.0604   59.4210   17.6340 C.ar    1  <0>        -0.0540
      8 C8         47.7608   59.0760   19.9181 C.ar    1  <0>        -0.0580
      9 C9         51.9772   54.6118   20.2103 C.2     1  <0>         0.0284
     10 C10        51.7254   54.5511   22.4649 C.2     1  <0>         0.0889
     11 C11        49.0450   57.0146   20.6425 C.3     1  <0>        -0.0253
     12 C12        50.5543   57.3353   20.4265 C.3     1  <0>        -0.0276
     13 C13        47.5141   58.1316   17.3115 C.ar    1  <0>        -0.0176
     14 C14        48.2127   57.7773   19.6202 C.ar    1  <0>        -0.0396
     15 C15        48.1170   57.3181   18.2848 C.ar    1  <0>        -0.0147
     16 C16        52.2212   53.3537   20.6150 C.2     1  <0>         0.1405
     17 C17        52.8880   57.6558   21.6270 C.3     1  <0>         0.0713
     18 C18        51.5235   56.8382   21.5208 C.3     1  <0>         0.0548
     19 C19        52.5184   52.1532   19.7767 C.2     1  <0>         0.2611
     20 N1         52.4956   50.9880   20.3835 N.am    1  <0>        -0.3241
     21 N2         52.1255   53.3186   22.0901 N.2     1  <0>        -0.2337
     22 N3         51.7207   55.3938   21.4311 N.pl3   1  <0>        -0.2898
     23 O1         53.8180   57.3902   22.7359 O.3     1  <0>        -0.3902
     24 O2         52.8656   52.1907   18.6056 O.2     1  <0>        -0.2687
     25 H1         54.6327   58.3270   20.5017 H       1  <0>         0.0255
     26 H2         53.9881   56.7319   19.9853 H       1  <0>         0.0255
     27 H3         53.1195   58.2395   19.5378 H       1  <0>         0.0255
     28 H4         47.5796   56.0362   14.6418 H       1  <0>         0.0618
     29 H5         48.4858   54.5091   16.3645 H       1  <0>         0.0618
     30 H6         46.7249   60.8310   19.2249 H       1  <0>         0.0618
     31 H7         46.8524   58.3230   15.2609 H       1  <0>         0.0624
     32 H8         48.8953   55.3316   18.6741 H       1  <0>         0.0624
     33 H9         46.6517   60.0606   16.8657 H       1  <0>         0.0624
     34 H10        47.8968   59.4662   20.9159 H       1  <0>         0.0620
     35 H11        51.9707   54.9760   19.1937 H       1  <0>         0.0807
     36 H12        51.4451   54.8209   23.4724 H       1  <0>         0.1003
     37 H13        48.8782   55.9344   20.5186 H       1  <0>         0.0314
     38 H14        48.7472   57.3175   21.6571 H       1  <0>         0.0314
     39 H15        50.8570   56.8593   19.4822 H       1  <0>         0.0287
     40 H16        50.6513   58.4299   20.3776 H       1  <0>         0.0287
     41 H17        52.4167   58.6211   21.8643 H       1  <0>         0.0609
     42 H18        51.0282   57.0484   22.4803 H       1  <0>         0.0529
     43 H19        52.7584   50.1606   19.8873 H       1  <0>         0.1453
     44 H20        52.2155   50.9287   21.3417 H       1  <0>         0.1453
     45 H21        53.3371   57.3691   23.5549 H       1  <0>         0.2098
@<TRIPOS>BOND
     1     1    17    1
     2     2     3   ar
     3     2     5   ar
     4     3     6   ar
     5     4     7   ar
     6     4     8   ar
     7     5    13   ar
     8     6    15   ar
     9     7    13   ar
    10     8    14   ar
    11     9    16    2
    12     9    22    1
    13    10    21    2
    14    10    22    1
    15    11    12    1
    16    11    14    1
    17    12    18    1
    18    13    15   ar
    19    14    15   ar
    20    16    19    1
    21    16    21    1
    22    17    18    1
    23    17    23    1
    24    18    22    1
    25    19    20   am
    26    19    24    2
    27     1    25    1
    28     1    26    1
    29     1    27    1
    30     2    28    1
    31     3    29    1
    32     4    30    1
    33     5    31    1
    34     6    32    1
    35     7    33    1
    36     8    34    1
    37     9    35    1
    38    10    36    1
    39    11    37    1
    40    11    38    1
    41    12    39    1
    42    12    40    1
    43    17    41    1
    44    18    42    1
    45    20    43    1
    46    20    44    1
    47    23    45    1
@<TRIPOS>SUBSTRUCTURE
     1 <0>         1 TEMP              0 ****  ****    0 ROOT

