
##########                                Name:        G24_462_1Q4X
##########                    Molecular_Weight:             375.444
##########                DOCK_Rotatable_Bonds:                   8
##########                       Formal_Charge:           -0.999999
##########                     HBond_Acceptors:                   4
##########                        HBond_Donors:                   1
##########                         Heavy_Atoms:                  28
##########                            HA_RMSDs:               0.322
##########                            HA_RMSDh:               0.322
##########                            HA_RMSDm:               0.322
##########                          Grid_Score:           12.300362
##########                     Grid_vdw_energy:          -58.430748
##########                      Grid_es_energy:           70.731110
##########           Internal_energy_repulsive:           25.937622

@<TRIPOS>MOLECULE
G24_462_1Q4X
 51 53 1 0 0
SMALL
USER_CHARGES


@<TRIPOS>ATOM
      1 C1         15.0635   22.2174   45.4372 C.3     1  <0>        -0.0394
      2 C2         15.6116   25.1411   49.6280 C.3     1  <0>        -0.0394
      3 C3         10.3417   23.4790   41.1694 C.ar    1  <0>        -0.0617
      4 C4         11.6462   23.9667   40.9704 C.ar    1  <0>        -0.0615
      5 C5          9.4986   24.1047   42.1089 C.ar    1  <0>        -0.0615
      6 C6         12.1084   25.0774   41.7035 C.ar    1  <0>        -0.0583
      7 C7          9.9582   25.2181   42.8457 C.ar    1  <0>        -0.0583
      8 C8         12.7352   25.4023   47.4279 C.ar    1  <0>        -0.0558
      9 C9         11.4315   25.8876   47.1462 C.ar    1  <0>        -0.0314
     10 C10        15.4561   21.2390   47.7426 C.ar    1  <0>        -0.0285
     11 C11        15.7017   22.6244   49.7078 C.ar    1  <0>        -0.0285
     12 C12        13.3874   25.9390   45.1430 C.ar    1  <0>        -0.0523
     13 C13        11.7949   26.9027   43.4442 C.3     1  <0>         0.0000
     14 C14        15.1849   24.9734   46.6592 C.3     1  <0>        -0.0019
     15 C15        16.2945   20.4746   51.1974 C.3     1  <0>         0.0934
     16 C16        15.2946   22.3926   46.9479 C.ar    1  <0>        -0.0443
     17 C17        15.5447   23.7784   48.9305 C.ar    1  <0>        -0.0443
     18 C18        11.2700   25.7035   42.6411 C.ar    1  <0>        -0.0430
     19 C19        13.7171   25.4311   46.4191 C.ar    1  <0>        -0.0426
     20 C20        11.1267   26.3961   45.8621 C.ar    1  <0>         0.0761
     21 C21        15.6578   21.3467   49.1179 C.ar    1  <0>         0.0772
     22 C22        12.0905   26.4180   44.8621 C.ar    1  <0>        -0.0131
     23 C23        15.3367   23.6961   47.5244 C.ar    1  <0>        -0.0371
     24 C24        16.3830   19.1826   52.0017 C.2     1  <0>         0.0678
     25 O1          9.8910   26.8852   45.5739 O.3     1  <0>        -0.3596
     26 O2         15.3303   18.5221   52.1715 O.co2   1  <0>        -0.5474
     27 O3         17.5051   18.8550   52.4500 O.co2   1  <0>        -0.5474
     28 O4         15.8001   20.2019   49.8627 O.3     1  <0>        -0.3389
     29 H1         13.9846   22.1402   45.2372 H       1  <0>         0.0278
     30 H2         15.4745   23.0852   44.9005 H       1  <0>         0.0278
     31 H3         15.5664   21.3015   45.0934 H       1  <0>         0.0278
     32 H4         16.6522   25.4975   49.6384 H       1  <0>         0.0278
     33 H5         14.9827   25.8619   49.0851 H       1  <0>         0.0278
     34 H6         15.2478   25.0421   50.6613 H       1  <0>         0.0278
     35 H7          9.9882   22.6290   40.6048 H       1  <0>         0.0618
     36 H8         12.2958   23.4877   40.2528 H       1  <0>         0.0618
     37 H9          8.4974   23.7314   42.2661 H       1  <0>         0.0618
     38 H10        13.1100   25.4487   41.5443 H       1  <0>         0.0620
     39 H11         9.3093   25.6976   43.5636 H       1  <0>         0.0620
     40 H12        12.9721   25.0142   48.4076 H       1  <0>         0.0621
     41 H13        10.6715   25.8685   47.9132 H       1  <0>         0.0643
     42 H14        15.4231   20.2629   47.2816 H       1  <0>         0.0646
     43 H15        15.8583   22.7154   50.7724 H       1  <0>         0.0646
     44 H16        14.1407   25.9609   44.3693 H       1  <0>         0.0624
     45 H17        12.7118   27.2953   42.9806 H       1  <0>         0.0362
     46 H18        11.0386   27.7011   43.4682 H       1  <0>         0.0362
     47 H19        15.6362   24.7680   45.6773 H       1  <0>         0.0362
     48 H20        15.7102   25.7910   47.1747 H       1  <0>         0.0362
     49 H21        15.6075   21.1692   51.7030 H       1  <0>         0.0627
     50 H22        17.2949   20.9267   51.1276 H       1  <0>         0.0627
     51 H23         9.8191   27.0338   44.6383 H       1  <0>         0.2173
@<TRIPOS>BOND
     1     1    16    1
     2     2    17    1
     3     3     4   ar
     4     3     5   ar
     5     4     6   ar
     6     5     7   ar
     7     6    18   ar
     8     7    18   ar
     9     8     9   ar
    10     8    19   ar
    11     9    20   ar
    12    10    16   ar
    13    10    21   ar
    14    11    17   ar
    15    11    21   ar
    16    12    19   ar
    17    12    22   ar
    18    13    18    1
    19    13    22    1
    20    14    19    1
    21    14    23    1
    22    15    24    1
    23    15    28    1
    24    16    23   ar
    25    17    23   ar
    26    20    22   ar
    27    20    25    1
    28    21    28    1
    29    24    26    1
    30    24    27    2
    31     1    29    1
    32     1    30    1
    33     1    31    1
    34     2    32    1
    35     2    33    1
    36     2    34    1
    37     3    35    1
    38     4    36    1
    39     5    37    1
    40     6    38    1
    41     7    39    1
    42     8    40    1
    43     9    41    1
    44    10    42    1
    45    11    43    1
    46    12    44    1
    47    13    45    1
    48    13    46    1
    49    14    47    1
    50    14    48    1
    51    15    49    1
    52    15    50    1
    53    25    51    1
@<TRIPOS>SUBSTRUCTURE
     1 <0>         1 TEMP              0 ****  ****    0 ROOT

