
##########                                Name:        G24_462_1Q4X
##########                    Molecular_Weight:             375.444
##########                DOCK_Rotatable_Bonds:                   8
##########                       Formal_Charge:           -0.999999
##########                     HBond_Acceptors:                   4
##########                        HBond_Donors:                   1
##########                         Heavy_Atoms:                  28
##########                            HA_RMSDs:               0.613
##########                            HA_RMSDh:               0.613
##########                            HA_RMSDm:               0.613
##########                          Grid_Score:           13.448917
##########                     Grid_vdw_energy:          -58.879551
##########                      Grid_es_energy:           72.328468
##########           Internal_energy_repulsive:           27.900276

@<TRIPOS>MOLECULE
G24_462_1Q4X
 51 53 1 0 0
SMALL
USER_CHARGES


@<TRIPOS>ATOM
      1 C1         14.9426   22.1644   45.9467 C.3     1  <0>        -0.0394
      2 C2         15.3663   24.7931   50.3424 C.3     1  <0>        -0.0394
      3 C3         10.9431   23.5332   41.2965 C.ar    1  <0>        -0.0617
      4 C4         12.1146   24.2815   41.0802 C.ar    1  <0>        -0.0615
      5 C5         10.0900   23.8663   42.3671 C.ar    1  <0>        -0.0615
      6 C6         12.4335   25.3616   41.9268 C.ar    1  <0>        -0.0583
      7 C7         10.4062   24.9479   43.2178 C.ar    1  <0>        -0.0583
      8 C8         12.5285   25.1618   47.8906 C.ar    1  <0>        -0.0558
      9 C9         11.2472   25.6340   47.5034 C.ar    1  <0>        -0.0314
     10 C10        15.2307   21.0283   48.1946 C.ar    1  <0>        -0.0285
     11 C11        15.4182   22.2755   50.2563 C.ar    1  <0>        -0.0285
     12 C12        13.3935   25.8416   45.7171 C.ar    1  <0>        -0.0523
     13 C13        11.9553   26.8658   43.9189 C.3     1  <0>         0.0000
     14 C14        15.0541   24.8305   47.3549 C.3     1  <0>        -0.0019
     15 C15        16.3627   19.9317   51.3957 C.3     1  <0>         0.0934
     16 C16        15.1166   22.2348   47.4736 C.ar    1  <0>        -0.0443
     17 C17        15.3079   23.4812   49.5529 C.ar    1  <0>        -0.0443
     18 C18        11.5847   25.6962   42.9952 C.ar    1  <0>        -0.0430
     19 C19        13.6062   25.2693   46.9908 C.ar    1  <0>        -0.0426
     20 C20        11.0600   26.2081   46.2245 C.ar    1  <0>         0.0761
     21 C21        15.3798   21.0409   49.5807 C.ar    1  <0>         0.0772
     22 C22        12.1190   26.3076   45.3312 C.ar    1  <0>        -0.0131
     23 C23        15.1541   23.4961   48.1375 C.ar    1  <0>        -0.0371
     24 C24        16.2328   18.6811   52.2578 C.2     1  <0>         0.0678
     25 O1          9.8469   26.6859   45.8381 O.3     1  <0>        -0.3596
     26 O2         15.1755   18.5268   52.9147 O.co2   1  <0>        -0.5474
     27 O3         17.1934   17.8783   52.2624 O.co2   1  <0>        -0.5474
     28 O4         15.4769   19.8468   50.2518 O.3     1  <0>        -0.3389
     29 H1         13.8714   22.1184   45.7009 H       1  <0>         0.0278
     30 H2         15.3863   23.0591   45.4857 H       1  <0>         0.0278
     31 H3         15.4459   21.2652   45.5616 H       1  <0>         0.0278
     32 H4         16.4105   25.1308   50.4165 H       1  <0>         0.0278
     33 H5         14.7692   25.5587   49.8255 H       1  <0>         0.0278
     34 H6         14.9609   24.6315   51.3521 H       1  <0>         0.0278
     35 H7         10.6990   22.7071   40.6450 H       1  <0>         0.0618
     36 H8         12.7719   24.0272   40.2619 H       1  <0>         0.0618
     37 H9          9.1911   23.2923   42.5376 H       1  <0>         0.0618
     38 H10        13.3329   25.9339   41.7540 H       1  <0>         0.0620
     39 H11         9.7494   25.2029   44.0363 H       1  <0>         0.0620
     40 H12        12.6756   24.7239   48.8668 H       1  <0>         0.0621
     41 H13        10.4142   25.5549   48.1863 H       1  <0>         0.0643
     42 H14        15.2024   20.0857   47.6681 H       1  <0>         0.0646
     43 H15        15.5342   22.2929   51.3299 H       1  <0>         0.0646
     44 H16        14.2203   25.9238   45.0271 H       1  <0>         0.0624
     45 H17        12.8957   27.3278   43.5843 H       1  <0>         0.0362
     46 H18        11.1603   27.6258   43.9033 H       1  <0>         0.0362
     47 H19        15.6135   24.7102   46.4155 H       1  <0>         0.0362
     48 H20        15.4952   25.6197   47.9816 H       1  <0>         0.0362
     49 H21        16.0956   20.8142   51.9956 H       1  <0>         0.0627
     50 H22        17.4009   20.0223   51.0436 H       1  <0>         0.0627
     51 H23         9.9604   27.2920   45.1154 H       1  <0>         0.2173
@<TRIPOS>BOND
     1     1    16    1
     2     2    17    1
     3     3     4   ar
     4     3     5   ar
     5     4     6   ar
     6     5     7   ar
     7     6    18   ar
     8     7    18   ar
     9     8     9   ar
    10     8    19   ar
    11     9    20   ar
    12    10    16   ar
    13    10    21   ar
    14    11    17   ar
    15    11    21   ar
    16    12    19   ar
    17    12    22   ar
    18    13    18    1
    19    13    22    1
    20    14    19    1
    21    14    23    1
    22    15    24    1
    23    15    28    1
    24    16    23   ar
    25    17    23   ar
    26    20    22   ar
    27    20    25    1
    28    21    28    1
    29    24    26    1
    30    24    27    2
    31     1    29    1
    32     1    30    1
    33     1    31    1
    34     2    32    1
    35     2    33    1
    36     2    34    1
    37     3    35    1
    38     4    36    1
    39     5    37    1
    40     6    38    1
    41     7    39    1
    42     8    40    1
    43     9    41    1
    44    10    42    1
    45    11    43    1
    46    12    44    1
    47    13    45    1
    48    13    46    1
    49    14    47    1
    50    14    48    1
    51    15    49    1
    52    15    50    1
    53    25    51    1
@<TRIPOS>SUBSTRUCTURE
     1 <0>         1 TEMP              0 ****  ****    0 ROOT

