
##########                                Name:        G24_462_1Q4X
##########                    Molecular_Weight:             375.444
##########                DOCK_Rotatable_Bonds:                   8
##########                       Formal_Charge:           -0.999999
##########                     HBond_Acceptors:                   4
##########                        HBond_Donors:                   1
##########                         Heavy_Atoms:                  28
##########                            HA_RMSDs:               0.653
##########                            HA_RMSDh:               0.653
##########                            HA_RMSDm:               0.653
##########                          Grid_Score:           11.312634
##########                     Grid_vdw_energy:          -59.572880
##########                      Grid_es_energy:           70.885513
##########           Internal_energy_repulsive:           36.680801

@<TRIPOS>MOLECULE
G24_462_1Q4X
 51 53 1 0 0
SMALL
USER_CHARGES


@<TRIPOS>ATOM
      1 C1         15.2498   22.2738   45.8482 C.3     1  <0>        -0.0394
      2 C2         15.2587   24.8459   50.2974 C.3     1  <0>        -0.0394
      3 C3         11.0155   23.3554   41.2491 C.ar    1  <0>        -0.0617
      4 C4         12.0062   24.2654   40.8374 C.ar    1  <0>        -0.0615
      5 C5         10.3527   23.5534   42.4765 C.ar    1  <0>        -0.0615
      6 C6         12.3334   25.3722   41.6453 C.ar    1  <0>        -0.0583
      7 C7         10.6780   24.6614   43.2891 C.ar    1  <0>        -0.0583
      8 C8         12.5997   25.2303   47.7869 C.ar    1  <0>        -0.0558
      9 C9         11.3168   25.6677   47.3658 C.ar    1  <0>        -0.0314
     10 C10        15.4501   21.1156   48.0943 C.ar    1  <0>        -0.0285
     11 C11        15.4423   22.3358   50.1806 C.ar    1  <0>        -0.0285
     12 C12        13.4837   25.8411   45.6007 C.ar    1  <0>        -0.0523
     13 C13        12.0545   26.7745   43.7467 C.3     1  <0>         0.0000
     14 C14        15.1370   24.9182   47.2968 C.3     1  <0>        -0.0019
     15 C15        16.4065   20.0280   51.3607 C.3     1  <0>         0.0934
     16 C16        15.3219   22.3271   47.3839 C.ar    1  <0>        -0.0443
     17 C17        15.3169   23.5462   49.4880 C.ar    1  <0>        -0.0443
     18 C18        11.6743   25.5725   42.8698 C.ar    1  <0>        -0.0430
     19 C19        13.6877   25.3205   46.8977 C.ar    1  <0>        -0.0426
     20 C20        11.1382   26.1902   46.0637 C.ar    1  <0>         0.0761
     21 C21        15.5092   21.1123   49.4873 C.ar    1  <0>         0.0772
     22 C22        12.2076   26.2725   45.1811 C.ar    1  <0>        -0.0131
     23 C23        15.2535   23.5774   48.0659 C.ar    1  <0>        -0.0371
     24 C24        16.0810   18.8800   52.3095 C.2     1  <0>         0.0678
     25 O1          9.9235   26.6344   45.6439 O.3     1  <0>        -0.3596
     26 O2         14.8739   18.5934   52.4936 O.co2   1  <0>        -0.5474
     27 O3         17.0408   18.2888   52.8541 O.co2   1  <0>        -0.5474
     28 O4         15.6229   19.9133   50.1470 O.3     1  <0>        -0.3389
     29 H1         14.2002   22.1794   45.5329 H       1  <0>         0.0278
     30 H2         15.6767   23.1969   45.4291 H       1  <0>         0.0278
     31 H3         15.8212   21.4071   45.4844 H       1  <0>         0.0278
     32 H4         16.2777   25.2334   50.4437 H       1  <0>         0.0278
     33 H5         14.6582   25.5899   49.7534 H       1  <0>         0.0278
     34 H6         14.7980   24.6477   51.2764 H       1  <0>         0.0278
     35 H7         10.7642   22.5089   40.6273 H       1  <0>         0.0618
     36 H8         12.5178   24.1150   39.8982 H       1  <0>         0.0618
     37 H9          9.5935   22.8554   42.7969 H       1  <0>         0.0618
     38 H10        13.0930   26.0687   41.3225 H       1  <0>         0.0620
     39 H11        10.1669   24.8125   44.2284 H       1  <0>         0.0620
     40 H12        12.7402   24.8317   48.7809 H       1  <0>         0.0621
     41 H13        10.4760   25.6014   48.0403 H       1  <0>         0.0643
     42 H14        15.5028   20.1818   47.5544 H       1  <0>         0.0646
     43 H15        15.4882   22.3408   51.2596 H       1  <0>         0.0646
     44 H16        14.3183   25.9101   44.9188 H       1  <0>         0.0624
     45 H17        13.0010   27.2125   43.3970 H       1  <0>         0.0362
     46 H18        11.2679   27.5418   43.6972 H       1  <0>         0.0362
     47 H19        15.7252   24.8256   46.3719 H       1  <0>         0.0362
     48 H20        15.5379   25.7115   47.9449 H       1  <0>         0.0362
     49 H21        16.1721   20.9828   51.8539 H       1  <0>         0.0627
     50 H22        17.4760   19.9945   51.1056 H       1  <0>         0.0627
     51 H23        10.0304   27.1511   44.8539 H       1  <0>         0.2173
@<TRIPOS>BOND
     1     1    16    1
     2     2    17    1
     3     3     4   ar
     4     3     5   ar
     5     4     6   ar
     6     5     7   ar
     7     6    18   ar
     8     7    18   ar
     9     8     9   ar
    10     8    19   ar
    11     9    20   ar
    12    10    16   ar
    13    10    21   ar
    14    11    17   ar
    15    11    21   ar
    16    12    19   ar
    17    12    22   ar
    18    13    18    1
    19    13    22    1
    20    14    19    1
    21    14    23    1
    22    15    24    1
    23    15    28    1
    24    16    23   ar
    25    17    23   ar
    26    20    22   ar
    27    20    25    1
    28    21    28    1
    29    24    26    1
    30    24    27    2
    31     1    29    1
    32     1    30    1
    33     1    31    1
    34     2    32    1
    35     2    33    1
    36     2    34    1
    37     3    35    1
    38     4    36    1
    39     5    37    1
    40     6    38    1
    41     7    39    1
    42     8    40    1
    43     9    41    1
    44    10    42    1
    45    11    43    1
    46    12    44    1
    47    13    45    1
    48    13    46    1
    49    14    47    1
    50    14    48    1
    51    15    49    1
    52    15    50    1
    53    25    51    1
@<TRIPOS>SUBSTRUCTURE
     1 <0>         1 TEMP              0 ****  ****    0 ROOT

