
##########                                Name:        G24_462_1Q4X
##########                    Molecular_Weight:             375.444
##########                DOCK_Rotatable_Bonds:                   8
##########                       Formal_Charge:           -0.999999
##########                     HBond_Acceptors:                   4
##########                        HBond_Donors:                   1
##########                         Heavy_Atoms:                  28
##########                            HA_RMSDs:               0.390
##########                            HA_RMSDh:               0.390
##########                            HA_RMSDm:               0.390
##########                          Grid_Score:           12.020847
##########                     Grid_vdw_energy:          -59.660046
##########                      Grid_es_energy:           71.680893
##########           Internal_energy_repulsive:           25.540804

@<TRIPOS>MOLECULE
G24_462_1Q4X
 51 53 1 0 0
SMALL
USER_CHARGES


@<TRIPOS>ATOM
      1 C1         15.0637   21.9660   45.8166 C.3     1  <0>        -0.0394
      2 C2         15.6063   25.0327   49.9047 C.3     1  <0>        -0.0394
      3 C3         10.2532   23.5474   41.3087 C.ar    1  <0>        -0.0617
      4 C4         11.6255   23.8300   41.1822 C.ar    1  <0>        -0.0615
      5 C5          9.4578   24.3235   42.1746 C.ar    1  <0>        -0.0615
      6 C6         12.2033   24.8858   41.9144 C.ar    1  <0>        -0.0583
      7 C7         10.0332   25.3825   42.9102 C.ar    1  <0>        -0.0583
      8 C8         12.7776   25.2390   47.5903 C.ar    1  <0>        -0.0558
      9 C9         11.4998   25.7562   47.2522 C.ar    1  <0>        -0.0314
     10 C10        15.3614   21.0667   48.1680 C.ar    1  <0>        -0.0285
     11 C11        15.6049   22.5195   50.0841 C.ar    1  <0>        -0.0285
     12 C12        13.5495   25.7826   45.3446 C.ar    1  <0>        -0.0523
     13 C13        12.0613   26.7982   43.5826 C.3     1  <0>         0.0000
     14 C14        15.2510   24.7624   46.9341 C.3     1  <0>        -0.0019
     15 C15        16.4407   20.3199   51.5052 C.3     1  <0>         0.0934
     16 C16        15.2616   22.1928   47.3252 C.ar    1  <0>        -0.0443
     17 C17        15.5092   23.6466   49.2588 C.ar    1  <0>        -0.0443
     18 C18        11.4127   25.6617   42.7788 C.ar    1  <0>        -0.0430
     19 C19        13.8067   25.2553   46.6295 C.ar    1  <0>        -0.0426
     20 C20        11.2677   26.2837   45.9606 C.ar    1  <0>         0.0761
     21 C21        15.5311   21.2218   49.5431 C.ar    1  <0>         0.0772
     22 C22        12.2783   26.2934   45.0077 C.ar    1  <0>        -0.0131
     23 C23        15.3349   23.5159   47.8517 C.ar    1  <0>        -0.0371
     24 C24        16.4990   19.0539   52.3524 C.2     1  <0>         0.0678
     25 O1         10.0582   26.8032   45.6193 O.3     1  <0>        -0.3596
     26 O2         15.4227   18.6055   52.8148 O.co2   1  <0>        -0.5474
     27 O3         17.6222   18.5339   52.5405 O.co2   1  <0>        -0.5474
     28 O4         15.6134   20.1031   50.3353 O.3     1  <0>        -0.3389
     29 H1         13.9883   21.9180   45.5904 H       1  <0>         0.0278
     30 H2         15.5190   22.7972   45.2582 H       1  <0>         0.0278
     31 H3         15.5426   21.0204   45.5223 H       1  <0>         0.0278
     32 H4         16.6582   25.3533   49.9297 H       1  <0>         0.0278
     33 H5         15.0176   25.7527   49.3174 H       1  <0>         0.0278
     34 H6         15.2125   24.9873   50.9307 H       1  <0>         0.0278
     35 H7          9.8114   22.7392   40.7447 H       1  <0>         0.0618
     36 H8         12.2384   23.2353   40.5211 H       1  <0>         0.0618
     37 H9          8.4044   24.1078   42.2761 H       1  <0>         0.0618
     38 H10        13.2569   25.0995   41.8110 H       1  <0>         0.0620
     39 H11         9.4210   25.9776   43.5716 H       1  <0>         0.0620
     40 H12        12.9589   24.8364   48.5759 H       1  <0>         0.0621
     41 H13        10.7038   25.7469   47.9821 H       1  <0>         0.0643
     42 H14        15.3059   20.0748   47.7444 H       1  <0>         0.0646
     43 H15        15.7370   22.6472   51.1483 H       1  <0>         0.0646
     44 H16        14.3390   25.7950   44.6078 H       1  <0>         0.0624
     45 H17        13.0242   27.0784   43.1307 H       1  <0>         0.0362
     46 H18        11.4023   27.6789   43.5903 H       1  <0>         0.0362
     47 H19        15.7257   24.5049   45.9758 H       1  <0>         0.0362
     48 H20        15.7859   25.5830   47.4346 H       1  <0>         0.0362
     49 H21        16.0129   21.1371   52.1046 H       1  <0>         0.0627
     50 H22        17.4582   20.5879   51.1844 H       1  <0>         0.0627
     51 H23        10.1458   27.3138   44.8230 H       1  <0>         0.2173
@<TRIPOS>BOND
     1     1    16    1
     2     2    17    1
     3     3     4   ar
     4     3     5   ar
     5     4     6   ar
     6     5     7   ar
     7     6    18   ar
     8     7    18   ar
     9     8     9   ar
    10     8    19   ar
    11     9    20   ar
    12    10    16   ar
    13    10    21   ar
    14    11    17   ar
    15    11    21   ar
    16    12    19   ar
    17    12    22   ar
    18    13    18    1
    19    13    22    1
    20    14    19    1
    21    14    23    1
    22    15    24    1
    23    15    28    1
    24    16    23   ar
    25    17    23   ar
    26    20    22   ar
    27    20    25    1
    28    21    28    1
    29    24    26    1
    30    24    27    2
    31     1    29    1
    32     1    30    1
    33     1    31    1
    34     2    32    1
    35     2    33    1
    36     2    34    1
    37     3    35    1
    38     4    36    1
    39     5    37    1
    40     6    38    1
    41     7    39    1
    42     8    40    1
    43     9    41    1
    44    10    42    1
    45    11    43    1
    46    12    44    1
    47    13    45    1
    48    13    46    1
    49    14    47    1
    50    14    48    1
    51    15    49    1
    52    15    50    1
    53    25    51    1
@<TRIPOS>SUBSTRUCTURE
     1 <0>         1 TEMP              0 ****  ****    0 ROOT

