
##########                                Name:        G24_462_1Q4X
##########                    Molecular_Weight:             375.444
##########                DOCK_Rotatable_Bonds:                   8
##########                       Formal_Charge:           -0.999999
##########                     HBond_Acceptors:                   4
##########                        HBond_Donors:                   1
##########                         Heavy_Atoms:                  28
##########                            HA_RMSDs:              20.344
##########                            HA_RMSDh:              19.092
##########                            HA_RMSDm:              16.880
##########                          Grid_Score:            1.728547
##########                     Grid_vdw_energy:          -15.347844
##########                      Grid_es_energy:           17.076391
##########           Internal_energy_repulsive:           18.522911

@<TRIPOS>MOLECULE
G24_462_1Q4X
 51 53 1 0 0
SMALL
USER_CHARGES


@<TRIPOS>ATOM
      1 C1          8.6661   38.5234   36.6544 C.3     1  <0>        -0.0394
      2 C2         10.8465   38.6479   32.0023 C.3     1  <0>        -0.0394
      3 C3         13.3278   37.4143   41.9610 C.ar    1  <0>        -0.0617
      4 C4         13.6579   38.6210   41.3176 C.ar    1  <0>        -0.0615
      5 C5         13.5241   36.1902   41.2917 C.ar    1  <0>        -0.0615
      6 C6         14.1855   38.6078   40.0113 C.ar    1  <0>        -0.0583
      7 C7         14.0525   36.1728   39.9825 C.ar    1  <0>        -0.0583
      8 C8         11.6088   36.4148   35.2777 C.ar    1  <0>        -0.0558
      9 C9         12.4052   35.3746   35.8240 C.ar    1  <0>        -0.0314
     10 C10         7.3629   38.0889   34.5238 C.ar    1  <0>        -0.0285
     11 C11         8.4022   38.1399   32.3423 C.ar    1  <0>        -0.0285
     12 C12        13.0167   38.0412   36.4210 C.ar    1  <0>        -0.0523
     13 C13        14.9425   37.3925   37.9113 C.3     1  <0>         0.0000
     14 C14        11.1360   38.9567   34.9763 C.3     1  <0>        -0.0019
     15 C15         5.5031   38.7231   31.7879 C.3     1  <0>         0.0934
     16 C16         8.6013   38.3998   35.1224 C.ar    1  <0>        -0.0443
     17 C17         9.6378   38.4507   32.9231 C.ar    1  <0>        -0.0443
     18 C18        14.3823   37.3887   39.3412 C.ar    1  <0>        -0.0430
     19 C19        11.9200   37.7547   35.5783 C.ar    1  <0>        -0.0426
     20 C20        13.5016   35.6865   36.6612 C.ar    1  <0>         0.0761
     21 C21         7.2566   37.9565   33.1399 C.ar    1  <0>         0.0772
     22 C22        13.8059   37.0069   36.9667 C.ar    1  <0>        -0.0131
     23 C23         9.7736   38.5908   34.3335 C.ar    1  <0>        -0.0371
     24 C24         4.3058   38.2373   30.9789 C.2     1  <0>         0.0678
     25 O1         14.2914   34.7088   37.1802 O.3     1  <0>        -0.3596
     26 O2          4.4779   37.2737   30.1946 O.co2   1  <0>        -0.5474
     27 O3          3.2162   38.8316   31.1430 O.co2   1  <0>        -0.5474
     28 O4          6.0374   37.6422   32.5918 O.3     1  <0>        -0.3389
     29 H1          8.8979   37.5414   37.0925 H       1  <0>         0.0278
     30 H2          9.4510   39.2427   36.9311 H       1  <0>         0.0278
     31 H3          7.6956   38.8747   37.0350 H       1  <0>         0.0278
     32 H4         10.9139   39.7052   31.7062 H       1  <0>         0.0278
     33 H5         11.7641   38.3572   32.5347 H       1  <0>         0.0278
     34 H6         10.7294   38.0227   31.1049 H       1  <0>         0.0278
     35 H7         12.9258   37.4262   42.9634 H       1  <0>         0.0618
     36 H8         13.5063   39.5612   41.8270 H       1  <0>         0.0618
     37 H9         13.2695   35.2620   41.7817 H       1  <0>         0.0618
     38 H10        14.4393   39.5374   39.5236 H       1  <0>         0.0620
     39 H11        14.2044   35.2331   39.4723 H       1  <0>         0.0620
     40 H12        10.7715   36.1806   34.6370 H       1  <0>         0.0621
     41 H13        12.1736   34.3438   35.6001 H       1  <0>         0.0643
     42 H14         6.4887   37.9520   35.1430 H       1  <0>         0.0646
     43 H15         8.3271   38.0395   31.2696 H       1  <0>         0.0646
     44 H16        13.2551   39.0690   36.6514 H       1  <0>         0.0624
     45 H17        15.3216   38.3932   37.6571 H       1  <0>         0.0362
     46 H18        15.7660   36.6681   37.8265 H       1  <0>         0.0362
     47 H19        10.9409   39.6703   35.7904 H       1  <0>         0.0362
     48 H20        11.7643   39.4080   34.1944 H       1  <0>         0.0362
     49 H21         6.2829   39.0823   31.1002 H       1  <0>         0.0627
     50 H22         5.1847   39.5427   32.4489 H       1  <0>         0.0627
     51 H23        14.6112   34.9789   38.0331 H       1  <0>         0.2173
@<TRIPOS>BOND
     1     1    16    1
     2     2    17    1
     3     3     4   ar
     4     3     5   ar
     5     4     6   ar
     6     5     7   ar
     7     6    18   ar
     8     7    18   ar
     9     8     9   ar
    10     8    19   ar
    11     9    20   ar
    12    10    16   ar
    13    10    21   ar
    14    11    17   ar
    15    11    21   ar
    16    12    19   ar
    17    12    22   ar
    18    13    18    1
    19    13    22    1
    20    14    19    1
    21    14    23    1
    22    15    24    1
    23    15    28    1
    24    16    23   ar
    25    17    23   ar
    26    20    22   ar
    27    20    25    1
    28    21    28    1
    29    24    26    1
    30    24    27    2
    31     1    29    1
    32     1    30    1
    33     1    31    1
    34     2    32    1
    35     2    33    1
    36     2    34    1
    37     3    35    1
    38     4    36    1
    39     5    37    1
    40     6    38    1
    41     7    39    1
    42     8    40    1
    43     9    41    1
    44    10    42    1
    45    11    43    1
    46    12    44    1
    47    13    45    1
    48    13    46    1
    49    14    47    1
    50    14    48    1
    51    15    49    1
    52    15    50    1
    53    25    51    1
@<TRIPOS>SUBSTRUCTURE
     1 <0>         1 TEMP              0 ****  ****    0 ROOT

