
##########                                Name:        G24_462_1Q4X
##########                    Molecular_Weight:             375.444
##########                DOCK_Rotatable_Bonds:                   8
##########                       Formal_Charge:           -0.999999
##########                     HBond_Acceptors:                   4
##########                        HBond_Donors:                   1
##########                         Heavy_Atoms:                  28
##########                            HA_RMSDs:               0.434
##########                            HA_RMSDh:               0.434
##########                            HA_RMSDm:               0.434
##########                          Grid_Score:           14.728313
##########                     Grid_vdw_energy:          -56.498707
##########                      Grid_es_energy:           71.227020
##########           Internal_energy_repulsive:           23.123377

@<TRIPOS>MOLECULE
G24_462_1Q4X
 51 53 1 0 0
SMALL
USER_CHARGES


@<TRIPOS>ATOM
      1 C1         15.2349   22.0124   45.9896 C.3     1  <0>        -0.0394
      2 C2         15.2595   25.2137   50.0099 C.3     1  <0>        -0.0394
      3 C3         10.5740   23.6907   41.1855 C.ar    1  <0>        -0.0617
      4 C4         11.8819   24.1715   40.9926 C.ar    1  <0>        -0.0615
      5 C5          9.7551   24.2729   42.1732 C.ar    1  <0>        -0.0615
      6 C6         12.3717   25.2323   41.7798 C.ar    1  <0>        -0.0583
      7 C7         10.2424   25.3361   42.9642 C.ar    1  <0>        -0.0583
      8 C8         12.7063   25.3251   47.6244 C.ar    1  <0>        -0.0558
      9 C9         11.4416   25.8563   47.2599 C.ar    1  <0>        -0.0314
     10 C10        15.3516   21.1937   48.3860 C.ar    1  <0>        -0.0285
     11 C11        15.3518   22.7091   50.2688 C.ar    1  <0>        -0.0285
     12 C12        13.5443   25.9033   45.4113 C.ar    1  <0>        -0.0523
     13 C13        12.1122   26.9592   43.6266 C.3     1  <0>         0.0000
     14 C14        15.1944   24.8446   47.0294 C.3     1  <0>        -0.0019
     15 C15        16.6753   20.2591   51.3581 C.3     1  <0>         0.0934
     16 C16        15.2813   22.2901   47.5020 C.ar    1  <0>        -0.0443
     17 C17        15.2839   23.8071   49.4026 C.ar    1  <0>        -0.0443
     18 C18        11.5575   25.8149   42.7655 C.ar    1  <0>        -0.0430
     19 C19        13.7622   25.3519   46.6933 C.ar    1  <0>        -0.0426
     20 C20        11.2490   26.4079   45.9719 C.ar    1  <0>         0.0761
     21 C21        15.3856   21.3948   49.7652 C.ar    1  <0>         0.0772
     22 C22        12.2860   26.4280   45.0480 C.ar    1  <0>        -0.0131
     23 C23        15.2472   23.6293   47.9904 C.ar    1  <0>        -0.0371
     24 C24        16.6557   19.0814   52.3259 C.2     1  <0>         0.0678
     25 O1         10.0527   26.9410   45.6061 O.3     1  <0>        -0.3596
     26 O2         15.6331   18.9189   53.0338 O.co2   1  <0>        -0.5474
     27 O3         17.6660   18.3428   52.3601 O.co2   1  <0>        -0.5474
     28 O4         15.4429   20.3037   50.5970 O.3     1  <0>        -0.3389
     29 H1         14.1883   21.9081   45.6674 H       1  <0>         0.0278
     30 H2         15.7032   22.8481   45.4490 H       1  <0>         0.0278
     31 H3         15.7801   21.0824   45.7709 H       1  <0>         0.0278
     32 H4         16.2895   25.5835   50.1210 H       1  <0>         0.0278
     33 H5         14.6970   25.8888   49.3483 H       1  <0>         0.0278
     34 H6         14.7743   25.1785   50.9965 H       1  <0>         0.0278
     35 H7         10.1994   22.8791   40.5794 H       1  <0>         0.0618
     36 H8         12.5130   23.7257   40.2380 H       1  <0>         0.0618
     37 H9          8.7514   23.9046   42.3258 H       1  <0>         0.0618
     38 H10        13.3758   25.5987   41.6251 H       1  <0>         0.0620
     39 H11         9.6120   25.7824   43.7191 H       1  <0>         0.0620
     40 H12        12.8575   24.9040   48.6074 H       1  <0>         0.0621
     41 H13        10.6253   25.8392   47.9669 H       1  <0>         0.0643
     42 H14        15.3793   20.1889   47.9911 H       1  <0>         0.0646
     43 H15        15.3785   22.8724   51.3360 H       1  <0>         0.0646
     44 H16        14.3543   25.9237   44.6973 H       1  <0>         0.0624
     45 H17        13.0806   27.2960   43.2284 H       1  <0>         0.0362
     46 H18        11.4120   27.8076   43.6236 H       1  <0>         0.0362
     47 H19        15.6736   24.5457   46.0855 H       1  <0>         0.0362
     48 H20        15.7391   25.6725   47.5068 H       1  <0>         0.0362
     49 H21        16.7829   21.1939   51.9278 H       1  <0>         0.0627
     50 H22        17.5237   20.1457   50.6671 H       1  <0>         0.0627
     51 H23        10.1397   27.3648   44.7603 H       1  <0>         0.2173
@<TRIPOS>BOND
     1     1    16    1
     2     2    17    1
     3     3     4   ar
     4     3     5   ar
     5     4     6   ar
     6     5     7   ar
     7     6    18   ar
     8     7    18   ar
     9     8     9   ar
    10     8    19   ar
    11     9    20   ar
    12    10    16   ar
    13    10    21   ar
    14    11    17   ar
    15    11    21   ar
    16    12    19   ar
    17    12    22   ar
    18    13    18    1
    19    13    22    1
    20    14    19    1
    21    14    23    1
    22    15    24    1
    23    15    28    1
    24    16    23   ar
    25    17    23   ar
    26    20    22   ar
    27    20    25    1
    28    21    28    1
    29    24    26    1
    30    24    27    2
    31     1    29    1
    32     1    30    1
    33     1    31    1
    34     2    32    1
    35     2    33    1
    36     2    34    1
    37     3    35    1
    38     4    36    1
    39     5    37    1
    40     6    38    1
    41     7    39    1
    42     8    40    1
    43     9    41    1
    44    10    42    1
    45    11    43    1
    46    12    44    1
    47    13    45    1
    48    13    46    1
    49    14    47    1
    50    14    48    1
    51    15    49    1
    52    15    50    1
    53    25    51    1
@<TRIPOS>SUBSTRUCTURE
     1 <0>         1 TEMP              0 ****  ****    0 ROOT

