
##########                                Name:        G24_462_1Q4X
##########                    Molecular_Weight:             375.444
##########                DOCK_Rotatable_Bonds:                   8
##########                       Formal_Charge:           -0.999999
##########                     HBond_Acceptors:                   4
##########                        HBond_Donors:                   1
##########                         Heavy_Atoms:                  28
##########                            HA_RMSDs:              18.379
##########                            HA_RMSDh:              17.633
##########                            HA_RMSDm:              15.300
##########                          Grid_Score:          -12.770379
##########                     Grid_vdw_energy:          -26.310579
##########                      Grid_es_energy:           13.540200
##########           Internal_energy_repulsive:           17.426439

@<TRIPOS>MOLECULE
G24_462_1Q4X
 51 53 1 0 0
SMALL
USER_CHARGES


@<TRIPOS>ATOM
      1 C1          9.2621   34.2213   33.4024 C.3     1  <0>        -0.0394
      2 C2         11.9215   37.6882   36.1079 C.3     1  <0>        -0.0394
      3 C3         10.2074   28.6552   32.8162 C.ar    1  <0>        -0.0617
      4 C4          9.4035   29.7925   33.0144 C.ar    1  <0>        -0.0615
      5 C5         10.8463   28.0517   33.9174 C.ar    1  <0>        -0.0615
      6 C6          9.2339   30.3254   34.3075 C.ar    1  <0>        -0.0583
      7 C7         10.6788   28.5828   35.2149 C.ar    1  <0>        -0.0583
      8 C8         12.1263   33.9413   36.9167 C.ar    1  <0>        -0.0558
      9 C9         12.6835   32.7013   37.3247 C.ar    1  <0>        -0.0314
     10 C10        10.6457   36.0401   32.3051 C.ar    1  <0>        -0.0285
     11 C11        11.9007   37.6584   33.5886 C.ar    1  <0>        -0.0285
     12 C12        10.0121   32.8081   36.4922 C.ar    1  <0>        -0.0523
     13 C13         9.6881   30.3289   36.8083 C.3     1  <0>         0.0000
     14 C14        10.0763   35.3178   36.0929 C.3     1  <0>        -0.0019
     15 C15        11.3366   38.9915   30.9111 C.3     1  <0>         0.0934
     16 C16        10.1921   35.4429   33.4993 C.ar    1  <0>        -0.0443
     17 C17        11.4565   37.0765   34.7822 C.ar    1  <0>        -0.0443
     18 C18         9.8697   29.7258   35.4077 C.ar    1  <0>        -0.0430
     19 C19        10.7821   33.9921   36.5004 C.ar    1  <0>        -0.0426
     20 C20        11.8910   31.5300   37.3128 C.ar    1  <0>         0.0761
     21 C21        11.4979   37.1429   32.3419 C.ar    1  <0>         0.0772
     22 C22        10.5672   31.5750   36.8944 C.ar    1  <0>        -0.0131
     23 C23        10.5866   35.9494   34.7724 C.ar    1  <0>        -0.0371
     24 C24        12.0450   39.6814   29.7509 C.2     1  <0>         0.0678
     25 O1         12.3960   30.3342   37.7181 O.3     1  <0>        -0.3596
     26 O2         12.7657   38.9802   29.0012 O.co2   1  <0>        -0.5474
     27 O3         11.8676   40.9131   29.6138 O.co2   1  <0>        -0.5474
     28 O4         11.9289   37.6924   31.1595 O.3     1  <0>        -0.3389
     29 H1          9.8653   33.3018   33.3760 H       1  <0>         0.0278
     30 H2          8.5959   34.1976   34.2774 H       1  <0>         0.0278
     31 H3          8.6599   34.2910   32.4845 H       1  <0>         0.0278
     32 H4         11.2101   38.4656   36.4231 H       1  <0>         0.0278
     33 H5         11.9707   36.9029   36.8765 H       1  <0>         0.0278
     34 H6         12.9179   38.1351   35.9758 H       1  <0>         0.0278
     35 H7         10.3343   28.2466   31.8246 H       1  <0>         0.0618
     36 H8          8.9145   30.2590   32.1720 H       1  <0>         0.0618
     37 H9         11.4662   27.1799   33.7686 H       1  <0>         0.0618
     38 H10         8.6134   31.1972   34.4536 H       1  <0>         0.0620
     39 H11        11.1676   28.1170   36.0579 H       1  <0>         0.0620
     40 H12        12.7280   34.8382   36.9255 H       1  <0>         0.0621
     41 H13        13.7138   32.6523   37.6446 H       1  <0>         0.0643
     42 H14        10.3300   35.6395   31.3531 H       1  <0>         0.0646
     43 H15        12.5602   38.5129   33.6247 H       1  <0>         0.0646
     44 H16         8.9811   32.8473   36.1727 H       1  <0>         0.0624
     45 H17         8.6340   30.5988   36.9694 H       1  <0>         0.0362
     46 H18         9.9899   29.6004   37.5751 H       1  <0>         0.0362
     47 H19         9.0050   35.1018   35.9683 H       1  <0>         0.0362
     48 H20        10.2434   36.0473   36.8991 H       1  <0>         0.0362
     49 H21        11.4329   39.6119   31.8143 H       1  <0>         0.0627
     50 H22        10.2732   38.8626   30.6608 H       1  <0>         0.0627
     51 H23        11.6873   29.7108   37.8257 H       1  <0>         0.2173
@<TRIPOS>BOND
     1     1    16    1
     2     2    17    1
     3     3     4   ar
     4     3     5   ar
     5     4     6   ar
     6     5     7   ar
     7     6    18   ar
     8     7    18   ar
     9     8     9   ar
    10     8    19   ar
    11     9    20   ar
    12    10    16   ar
    13    10    21   ar
    14    11    17   ar
    15    11    21   ar
    16    12    19   ar
    17    12    22   ar
    18    13    18    1
    19    13    22    1
    20    14    19    1
    21    14    23    1
    22    15    24    1
    23    15    28    1
    24    16    23   ar
    25    17    23   ar
    26    20    22   ar
    27    20    25    1
    28    21    28    1
    29    24    26    1
    30    24    27    2
    31     1    29    1
    32     1    30    1
    33     1    31    1
    34     2    32    1
    35     2    33    1
    36     2    34    1
    37     3    35    1
    38     4    36    1
    39     5    37    1
    40     6    38    1
    41     7    39    1
    42     8    40    1
    43     9    41    1
    44    10    42    1
    45    11    43    1
    46    12    44    1
    47    13    45    1
    48    13    46    1
    49    14    47    1
    50    14    48    1
    51    15    49    1
    52    15    50    1
    53    25    51    1
@<TRIPOS>SUBSTRUCTURE
     1 <0>         1 TEMP              0 ****  ****    0 ROOT

