
##########                                Name:        G24_462_1Q4X
##########                    Molecular_Weight:             375.444
##########                DOCK_Rotatable_Bonds:                   8
##########                       Formal_Charge:           -0.999999
##########                     HBond_Acceptors:                   4
##########                        HBond_Donors:                   1
##########                         Heavy_Atoms:                  28
##########                            HA_RMSDs:               0.450
##########                            HA_RMSDh:               0.450
##########                            HA_RMSDm:               0.450
##########                          Grid_Score:           18.511387
##########                     Grid_vdw_energy:          -53.053097
##########                      Grid_es_energy:           71.564484
##########           Internal_energy_repulsive:           27.091099

@<TRIPOS>MOLECULE
G24_462_1Q4X
 51 53 1 0 0
SMALL
USER_CHARGES


@<TRIPOS>ATOM
      1 C1         15.1619   22.4257   45.3744 C.3     1  <0>        -0.0394
      2 C2         15.1121   24.9548   49.8479 C.3     1  <0>        -0.0394
      3 C3         10.8064   23.4326   41.0746 C.ar    1  <0>        -0.0617
      4 C4         12.0660   24.0490   40.9627 C.ar    1  <0>        -0.0615
      5 C5          9.8489   23.9581   41.9646 C.ar    1  <0>        -0.0615
      6 C6         12.3697   25.1885   41.7335 C.ar    1  <0>        -0.0583
      7 C7         10.1496   25.0999   42.7389 C.ar    1  <0>        -0.0583
      8 C8         12.5349   25.4830   47.5017 C.ar    1  <0>        -0.0558
      9 C9         11.2438   25.9620   47.1578 C.ar    1  <0>        -0.0314
     10 C10        15.3494   21.2473   47.6110 C.ar    1  <0>        -0.0285
     11 C11        15.3140   22.4472   49.7088 C.ar    1  <0>        -0.0285
     12 C12        13.2873   26.0026   45.2438 C.ar    1  <0>        -0.0523
     13 C13        11.7699   26.9474   43.4673 C.3     1  <0>         0.0000
     14 C14        15.0176   25.0552   46.8471 C.3     1  <0>        -0.0019
     15 C15        16.2190   20.1484   50.9125 C.3     1  <0>         0.0934
     16 C16        15.2195   22.4646   46.9111 C.ar    1  <0>        -0.0443
     17 C17        15.1867   23.6633   49.0266 C.ar    1  <0>        -0.0443
     18 C18        11.4171   25.7149   42.6219 C.ar    1  <0>        -0.0430
     19 C19        13.5608   25.5064   46.5376 C.ar    1  <0>        -0.0426
     20 C20        10.9954   26.4590   45.8571 C.ar    1  <0>         0.0761
     21 C21        15.3957   21.2309   49.0044 C.ar    1  <0>         0.0772
     22 C22        12.0030   26.4754   44.9011 C.ar    1  <0>        -0.0131
     23 C23        15.1362   23.7078   47.6044 C.ar    1  <0>        -0.0371
     24 C24        16.2253   18.8121   51.6461 C.2     1  <0>         0.0678
     25 O1          9.7726   26.9419   45.5097 O.3     1  <0>        -0.3596
     26 O2         15.1212   18.3192   51.9799 O.co2   1  <0>        -0.5474
     27 O3         17.3362   18.2827   51.8760 O.co2   1  <0>        -0.5474
     28 O4         15.5115   20.0264   49.6536 O.3     1  <0>        -0.3389
     29 H1         14.1160   22.3271   45.0484 H       1  <0>         0.0278
     30 H2         15.5863   23.3557   44.9681 H       1  <0>         0.0278
     31 H3         15.7426   21.5664   45.0075 H       1  <0>         0.0278
     32 H4         16.1271   25.3477   50.0073 H       1  <0>         0.0278
     33 H5         14.5116   25.6998   49.3055 H       1  <0>         0.0278
     34 H6         14.6438   24.7440   50.8206 H       1  <0>         0.0278
     35 H7         10.5744   22.5607   40.4810 H       1  <0>         0.0618
     36 H8         12.8030   23.6472   40.2831 H       1  <0>         0.0618
     37 H9          8.8818   23.4860   42.0549 H       1  <0>         0.0618
     38 H10        13.3376   25.6587   41.6412 H       1  <0>         0.0620
     39 H11         9.4132   25.5023   43.4187 H       1  <0>         0.0620
     40 H12        12.7286   25.1038   48.4942 H       1  <0>         0.0621
     41 H13        10.4502   25.9470   47.8901 H       1  <0>         0.0643
     42 H14        15.4135   20.3191   47.0627 H       1  <0>         0.0646
     43 H15        15.3499   22.4421   50.7881 H       1  <0>         0.0646
     44 H16        14.0744   26.0204   44.5045 H       1  <0>         0.0624
     45 H17        12.6790   27.4265   43.0752 H       1  <0>         0.0362
     46 H18        10.9444   27.6739   43.4386 H       1  <0>         0.0362
     47 H19        15.5454   24.9475   45.8880 H       1  <0>         0.0362
     48 H20        15.4829   25.8320   47.4716 H       1  <0>         0.0362
     49 H21        15.7179   20.9022   51.5377 H       1  <0>         0.0627
     50 H22        17.2560   20.4585   50.7164 H       1  <0>         0.0627
     51 H23         9.7882   27.2210   44.6018 H       1  <0>         0.2173
@<TRIPOS>BOND
     1     1    16    1
     2     2    17    1
     3     3     4   ar
     4     3     5   ar
     5     4     6   ar
     6     5     7   ar
     7     6    18   ar
     8     7    18   ar
     9     8     9   ar
    10     8    19   ar
    11     9    20   ar
    12    10    16   ar
    13    10    21   ar
    14    11    17   ar
    15    11    21   ar
    16    12    19   ar
    17    12    22   ar
    18    13    18    1
    19    13    22    1
    20    14    19    1
    21    14    23    1
    22    15    24    1
    23    15    28    1
    24    16    23   ar
    25    17    23   ar
    26    20    22   ar
    27    20    25    1
    28    21    28    1
    29    24    26    1
    30    24    27    2
    31     1    29    1
    32     1    30    1
    33     1    31    1
    34     2    32    1
    35     2    33    1
    36     2    34    1
    37     3    35    1
    38     4    36    1
    39     5    37    1
    40     6    38    1
    41     7    39    1
    42     8    40    1
    43     9    41    1
    44    10    42    1
    45    11    43    1
    46    12    44    1
    47    13    45    1
    48    13    46    1
    49    14    47    1
    50    14    48    1
    51    15    49    1
    52    15    50    1
    53    25    51    1
@<TRIPOS>SUBSTRUCTURE
     1 <0>         1 TEMP              0 ****  ****    0 ROOT

