Z1893460093
 OpenBabel05302414222D

 32 35  0  0  0  0  0  0  0  0999 V2000
   14.4934  -10.3750    0.0000 O   0  0  0  0  0  0  0  0  0  0  0  0
   14.4934  -11.8750    0.0000 C   0  0  0  0  0  0  0  0  0  0  0  0
   13.1943  -12.6250    0.0000 N   0  0  0  0  0  0  0  0  0  0  0  0
   11.8952  -11.8750    0.0000 C   0  0  3  0  0  0  0  0  0  0  0  0
   10.5962  -12.6250    0.0000 C   0  0  0  0  0  0  0  0  0  0  0  0
    9.2973  -11.8750    0.0000 C   0  0  0  0  0  0  0  0  0  0  0  0
    7.9982  -12.6250    0.0000 C   0  0  0  0  0  0  0  0  0  0  0  0
    7.9982  -14.1250    0.0000 C   0  0  0  0  0  0  0  0  0  0  0  0
    6.6993  -14.8750    0.0000 C   0  0  0  0  0  0  0  0  0  0  0  0
    5.4002  -14.1250    0.0000 C   0  0  0  0  0  0  0  0  0  0  0  0
    5.4002  -12.6250    0.0000 C   0  0  0  0  0  0  0  0  0  0  0  0
    6.6993  -11.8750    0.0000 C   0  0  0  0  0  0  0  0  0  0  0  0
   11.8952  -10.3750    0.0000 C   0  0  0  0  0  0  0  0  0  0  0  0
   10.5962   -9.6250    0.0000 C   0  0  0  0  0  0  0  0  0  0  0  0
   10.5962   -8.1250    0.0000 C   0  0  0  0  0  0  0  0  0  0  0  0
   11.8952   -7.3750    0.0000 C   0  0  0  0  0  0  0  0  0  0  0  0
   13.1943   -8.1250    0.0000 C   0  0  0  0  0  0  0  0  0  0  0  0
   13.1943   -9.6250    0.0000 C   0  0  0  0  0  0  0  0  0  0  0  0
   15.7923  -12.6250    0.0000 C   0  0  0  0  0  0  0  0  0  0  0  0
   15.7923  -14.1250    0.0000 O   0  0  0  0  0  0  0  0  0  0  0  0
   17.0914  -11.8750    0.0000 N   0  0  0  0  0  0  0  0  0  0  0  0
   18.3905  -12.6250    0.0000 C   0  0  0  0  0  0  0  0  0  0  0  0
   19.7609  -12.0148    0.0000 N   0  0  0  0  0  0  0  0  0  0  0  0
   20.7645  -13.1296    0.0000 N   0  0  0  0  0  0  0  0  0  0  0  0
   20.0145  -14.4287    0.0000 C   0  0  0  0  0  0  0  0  0  0  0  0
   18.5474  -14.1169    0.0000 C   0  0  0  0  0  0  0  0  0  0  0  0
   22.2564  -12.9728    0.0000 C   0  0  0  0  0  0  0  0  0  0  0  0
   22.8665  -11.6025    0.0000 C   0  0  0  0  0  0  0  0  0  0  0  0
   24.3582  -11.4457    0.0000 C   0  0  0  0  0  0  0  0  0  0  0  0
   25.2398  -12.6592    0.0000 C   0  0  0  0  0  0  0  0  0  0  0  0
   24.6298  -14.0296    0.0000 C   0  0  0  0  0  0  0  0  0  0  0  0
   23.1380  -14.1863    0.0000 C   0  0  0  0  0  0  0  0  0  0  0  0
  1  2  2  0  0  0  0
  2  3  1  0  0  0  0
  2 19  1  0  0  0  0
  3  4  1  0  0  0  0
  4  5  1  0  0  0  0
  4 13  1  0  0  0  0
  5  6  1  0  0  0  0
  6  7  1  0  0  0  0
  7  8  2  0  0  0  0
  7 12  1  0  0  0  0
  8  9  1  0  0  0  0
  9 10  2  0  0  0  0
 10 11  1  0  0  0  0
 11 12  2  0  0  0  0
 13 14  2  0  0  0  0
 13 18  1  0  0  0  0
 14 15  1  0  0  0  0
 15 16  2  0  0  0  0
 16 17  1  0  0  0  0
 17 18  2  0  0  0  0
 19 20  2  0  0  0  0
 19 21  1  0  0  0  0
 21 22  1  0  0  0  0
 22 23  2  0  0  0  0
 22 26  1  0  0  0  0
 23 24  1  0  0  0  0
 24 25  1  0  0  0  0
 24 27  1  0  0  0  0
 25 26  2  0  0  0  0
 27 28  1  0  0  0  0
 27 32  1  0  0  0  0
 28 29  1  0  0  0  0
 29 30  1  0  0  0  0
 30 31  1  0  0  0  0
 31 32  1  0  0  0  0
M  END
$$$$
