Z4121492004
 OpenBabel05302415362D

 32 35  0  0  0  0  0  0  0  0999 V2000
   28.4636   -8.2894    0.0000 C   0  0  0  0  0  0  0  0  0  0  0  0
   27.1646   -9.0394    0.0000 C   0  0  0  0  0  0  0  0  0  0  0  0
   27.1646  -10.5394    0.0000 C   0  0  0  0  0  0  0  0  0  0  0  0
   25.8657  -11.2894    0.0000 C   0  0  0  0  0  0  0  0  0  0  0  0
   24.5666  -10.5394    0.0000 C   0  0  0  0  0  0  0  0  0  0  0  0
   23.2675  -11.2894    0.0000 N   0  0  0  0  0  0  0  0  0  0  0  0
   23.2675  -12.7895    0.0000 C   0  0  0  0  0  0  0  0  0  0  0  0
   24.5666  -13.5395    0.0000 O   0  0  0  0  0  0  0  0  0  0  0  0
   21.9685  -13.5395    0.0000 N   0  0  0  0  0  0  0  0  0  0  0  0
   21.9685  -15.0395    0.0000 C   0  0  0  0  0  0  0  0  0  0  0  0
   23.1820  -15.9212    0.0000 N   0  0  0  0  0  0  0  0  0  0  0  0
   22.7186  -17.3479    0.0000 N   0  0  0  0  0  0  0  0  0  0  0  0
   21.2185  -17.3479    0.0000 C   0  0  0  0  0  0  0  0  0  0  0  0
   20.7549  -15.9212    0.0000 C   0  0  0  0  0  0  0  0  0  0  0  0
   23.6002  -18.5614    0.0000 C   0  0  0  0  0  0  0  0  0  0  0  0
   25.0920  -18.4047    0.0000 C   0  0  0  0  0  0  0  0  0  0  0  0
   25.9737  -19.6181    0.0000 C   0  0  0  0  0  0  0  0  0  0  0  0
   25.3635  -20.9885    0.0000 O   0  0  0  0  0  0  0  0  0  0  0  0
   23.8718  -21.1452    0.0000 C   0  0  0  0  0  0  0  0  0  0  0  0
   22.9900  -19.9318    0.0000 C   0  0  0  0  0  0  0  0  0  0  0  0
   24.5666   -9.0394    0.0000 C   0  0  0  0  0  0  0  0  0  0  0  0
   25.8657   -8.2894    0.0000 C   0  0  0  0  0  0  0  0  0  0  0  0
   25.8657   -6.7894    0.0000 S   0  0  0  0  0  0  0  0  0  0  0  0
   27.3655   -6.7894    0.0000 O   0  0  0  0  0  0  0  0  0  0  0  0
   24.3657   -6.7894    0.0000 O   0  0  0  0  0  0  0  0  0  0  0  0
   25.8657   -5.2895    0.0000 N   0  0  0  0  0  0  0  0  0  0  0  0
   24.5142   -4.6388    0.0000 C   0  0  0  0  0  0  0  0  0  0  0  0
   24.1804   -3.1764    0.0000 C   0  0  0  0  0  0  0  0  0  0  0  0
   25.1157   -2.0037    0.0000 C   0  0  0  0  0  0  0  0  0  0  0  0
   26.6157   -2.0037    0.0000 C   0  0  0  0  0  0  0  0  0  0  0  0
   27.5508   -3.1764    0.0000 C   0  0  0  0  0  0  0  0  0  0  0  0
   27.2170   -4.6388    0.0000 C   0  0  0  0  0  0  0  0  0  0  0  0
  1  2  1  0  0  0  0
  2  3  2  0  0  0  0
  2 22  1  0  0  0  0
  3  4  1  0  0  0  0
  4  5  2  0  0  0  0
  5  6  1  0  0  0  0
  5 21  1  0  0  0  0
  6  7  1  0  0  0  0
  7  8  2  0  0  0  0
  7  9  1  0  0  0  0
  9 10  1  0  0  0  0
 10 11  2  0  0  0  0
 10 14  1  0  0  0  0
 11 12  1  0  0  0  0
 12 13  1  0  0  0  0
 12 15  1  0  0  0  0
 13 14  2  0  0  0  0
 15 16  1  0  0  0  0
 15 20  1  0  0  0  0
 16 17  1  0  0  0  0
 17 18  1  0  0  0  0
 18 19  1  0  0  0  0
 19 20  1  0  0  0  0
 21 22  2  0  0  0  0
 22 23  1  0  0  0  0
 23 24  2  0  0  0  0
 23 25  2  0  0  0  0
 23 26  1  0  0  0  0
 26 27  1  0  0  0  0
 26 32  1  0  0  0  0
 27 28  1  0  0  0  0
 28 29  1  0  0  0  0
 29 30  1  0  0  0  0
 30 31  1  0  0  0  0
 31 32  1  0  0  0  0
M  END
$$$$
