Z4121492020
 OpenBabel05302414192D

 33 36  0  0  0  0  0  0  0  0999 V2000
    4.4966  -13.9430    0.0000 C   0  0  0  0  0  0  0  0  0  0  0  0
    5.6457  -14.9072    0.0000 C   0  0  0  0  0  0  0  0  0  0  0  0
    7.0554  -14.3942    0.0000 C   0  0  0  0  0  0  0  0  0  0  0  0
    8.2045  -15.3584    0.0000 C   0  0  0  0  0  0  0  0  0  0  0  0
    8.9545  -16.6574    0.0000 C   0  0  0  0  0  0  0  0  0  0  0  0
    7.4545  -16.6574    0.0000 C   0  0  0  0  0  0  0  0  0  0  0  0
    9.3534  -14.3942    0.0000 S   0  0  0  0  0  0  0  0  0  0  0  0
   10.3176  -15.5432    0.0000 O   0  0  0  0  0  0  0  0  0  0  0  0
    8.3892  -13.2451    0.0000 O   0  0  0  0  0  0  0  0  0  0  0  0
   10.5025  -13.4299    0.0000 N   0  0  0  0  0  0  0  0  0  0  0  0
   10.2422  -11.9527    0.0000 C   0  0  0  0  0  0  0  0  0  0  0  0
    8.8325  -11.4396    0.0000 O   0  0  0  0  0  0  0  0  0  0  0  0
   11.3913  -10.9885    0.0000 C   0  0  0  0  0  0  0  0  0  0  0  0
   12.8008  -11.5015    0.0000 C   0  0  0  0  0  0  0  0  0  0  0  0
   13.9499  -10.5373    0.0000 C   0  0  0  0  0  0  0  0  0  0  0  0
   13.6893   -9.0601    0.0000 C   0  0  0  0  0  0  0  0  0  0  0  0
   14.8384   -8.0959    0.0000 N   0  0  0  0  0  0  0  0  0  0  0  0
   14.5781   -6.6186    0.0000 C   0  0  0  0  0  0  0  0  0  0  0  0
   15.7268   -5.6544    0.0000 C   0  0  0  0  0  0  0  0  0  0  0  0
   17.1365   -6.1675    0.0000 C   0  0  0  0  0  0  0  0  0  0  0  0
   17.3969   -7.6447    0.0000 C   0  0  0  0  0  0  0  0  0  0  0  0
   16.2477   -8.6089    0.0000 C   0  0  0  0  0  0  0  0  0  0  0  0
   12.2799   -8.5470    0.0000 C   0  0  0  0  0  0  0  0  0  0  0  0
   11.1307   -9.5112    0.0000 C   0  0  0  0  0  0  0  0  0  0  0  0
   12.0193   -7.0697    0.0000 S   0  0  0  0  0  0  0  0  0  0  0  0
   11.7587   -5.5926    0.0000 O   0  0  0  0  0  0  0  0  0  0  0  0
   13.4966   -6.8094    0.0000 O   0  0  0  0  0  0  0  0  0  0  0  0
   10.5420   -7.3303    0.0000 N   0  0  0  0  0  0  0  0  0  0  0  0
   10.0291   -8.7398    0.0000 C   0  0  0  0  0  0  0  0  0  0  0  0
    8.5518   -9.0003    0.0000 C   0  0  0  0  0  0  0  0  0  0  0  0
    7.5876   -7.8512    0.0000 C   0  0  0  0  0  0  0  0  0  0  0  0
    8.1007   -6.4417    0.0000 C   0  0  0  0  0  0  0  0  0  0  0  0
    9.5778   -6.1812    0.0000 C   0  0  0  0  0  0  0  0  0  0  0  0
  1  2  2  0  0  0  0
  2  3  1  0  0  0  0
  3  4  1  0  0  0  0
  4  5  1  0  0  0  0
  4  6  1  0  0  0  0
  4  7  1  0  0  0  0
  5  6  1  0  0  0  0
  7  8  2  0  0  0  0
  7  9  2  0  0  0  0
  7 10  1  0  0  0  0
 10 11  1  0  0  0  0
 11 12  2  0  0  0  0
 11 13  1  0  0  0  0
 13 14  2  0  0  0  0
 13 24  1  0  0  0  0
 14 15  1  0  0  0  0
 15 16  2  0  0  0  0
 16 17  1  0  0  0  0
 16 23  1  0  0  0  0
 17 18  1  0  0  0  0
 17 22  1  0  0  0  0
 18 19  1  0  0  0  0
 19 20  1  0  0  0  0
 20 21  1  0  0  0  0
 21 22  1  0  0  0  0
 23 24  2  0  0  0  0
 23 25  1  0  0  0  0
 25 26  2  0  0  0  0
 25 27  2  0  0  0  0
 25 28  1  0  0  0  0
 28 29  1  0  0  0  0
 28 33  1  0  0  0  0
 29 30  1  0  0  0  0
 30 31  1  0  0  0  0
 31 32  1  0  0  0  0
 32 33  1  0  0  0  0
M  END
$$$$
