Z4121492147
 OpenBabel05302414242D

 31 34  0  0  0  0  0  0  0  0999 V2000
   12.6188   -2.4547    0.0000 F   0  0  0  0  0  0  0  0  0  0  0  0
   12.6188   -3.9547    0.0000 C   0  0  0  0  0  0  0  0  0  0  0  0
   13.9179   -4.7047    0.0000 C   0  0  0  0  0  0  0  0  0  0  0  0
   13.9179   -6.2048    0.0000 C   0  0  0  0  0  0  0  0  0  0  0  0
   12.6188   -6.9548    0.0000 C   0  0  0  0  0  0  0  0  0  0  0  0
   11.3199   -6.2048    0.0000 C   0  0  0  0  0  0  0  0  0  0  0  0
   11.3199   -4.7047    0.0000 C   0  0  0  0  0  0  0  0  0  0  0  0
   12.6188   -8.4548    0.0000 C   0  0  0  0  0  0  0  0  0  0  0  0
   13.9179   -9.2048    0.0000 O   0  0  0  0  0  0  0  0  0  0  0  0
   11.3199   -9.2048    0.0000 C   0  0  0  0  0  0  0  0  0  0  0  0
   10.0209   -8.4548    0.0000 C   0  0  0  0  0  0  0  0  0  0  0  0
    8.7218   -9.2048    0.0000 C   0  0  0  0  0  0  0  0  0  0  0  0
    7.4229   -8.4548    0.0000 Cl  0  0  0  0  0  0  0  0  0  0  0  0
    8.7218  -10.7048    0.0000 C   0  0  0  0  0  0  0  0  0  0  0  0
   10.0209  -11.4549    0.0000 C   0  0  0  0  0  0  0  0  0  0  0  0
   11.3199  -10.7048    0.0000 C   0  0  0  0  0  0  0  0  0  0  0  0
   12.6188  -11.4549    0.0000 N   0  0  0  0  0  0  0  0  0  0  0  0
   12.6188  -12.9549    0.0000 S   0  0  0  0  0  0  0  0  0  0  0  0
   11.1189  -12.9549    0.0000 O   0  0  0  0  0  0  0  0  0  0  0  0
   14.1188  -12.9549    0.0000 O   0  0  0  0  0  0  0  0  0  0  0  0
   12.6188  -14.4549    0.0000 C   0  0  0  0  0  0  0  0  0  0  0  0
   13.8325  -15.3366    0.0000 C   0  0  0  0  0  0  0  0  0  0  0  0
   13.3688  -16.7631    0.0000 N   0  0  0  0  0  0  0  0  0  0  0  0
   11.8688  -16.7631    0.0000 N   0  0  0  0  0  0  0  0  0  0  0  0
   11.4053  -15.3366    0.0000 C   0  0  0  0  0  0  0  0  0  0  0  0
   14.2506  -17.9766    0.0000 C   0  0  0  0  0  0  0  0  0  0  0  0
   15.7423  -17.8199    0.0000 C   0  0  0  0  0  0  0  0  0  0  0  0
   16.6240  -19.0334    0.0000 C   0  0  0  0  0  0  0  0  0  0  0  0
   16.0139  -20.4038    0.0000 C   0  0  0  0  0  0  0  0  0  0  0  0
   14.5221  -20.5605    0.0000 C   0  0  0  0  0  0  0  0  0  0  0  0
   13.6404  -19.3470    0.0000 C   0  0  0  0  0  0  0  0  0  0  0  0
  1  2  1  0  0  0  0
  2  3  2  0  0  0  0
  2  7  1  0  0  0  0
  3  4  1  0  0  0  0
  4  5  2  0  0  0  0
  5  6  1  0  0  0  0
  5  8  1  0  0  0  0
  6  7  2  0  0  0  0
  8  9  2  0  0  0  0
  8 10  1  0  0  0  0
 10 11  2  0  0  0  0
 10 16  1  0  0  0  0
 11 12  1  0  0  0  0
 12 13  1  0  0  0  0
 12 14  2  0  0  0  0
 14 15  1  0  0  0  0
 15 16  2  0  0  0  0
 16 17  1  0  0  0  0
 17 18  1  0  0  0  0
 18 19  2  0  0  0  0
 18 20  2  0  0  0  0
 18 21  1  0  0  0  0
 21 22  2  0  0  0  0
 21 25  1  0  0  0  0
 22 23  1  0  0  0  0
 23 24  1  0  0  0  0
 23 26  1  0  0  0  0
 24 25  2  0  0  0  0
 26 27  1  0  0  0  0
 26 31  1  0  0  0  0
 27 28  1  0  0  0  0
 28 29  1  0  0  0  0
 29 30  1  0  0  0  0
 30 31  1  0  0  0  0
M  END
$$$$
