Z4121493648
 OpenBabel05302414272D

 27 29  0  0  1  0  0  0  0  0999 V2000
   17.8570   -9.8178    0.0000 C   0  0  0  0  0  0  0  0  0  0  0  0
   19.0099  -10.8555    0.0000 C   0  0  3  0  0  0  0  0  0  0  0  0
   18.6874  -12.3730    0.0000 C   0  0  0  0  0  0  0  0  0  0  0  0
   17.2121  -12.8523    0.0000 C   0  0  0  0  0  0  0  0  0  0  0  0
   16.8894  -14.3698    0.0000 C   0  0  0  0  0  0  0  0  0  0  0  0
   16.5669  -15.8872    0.0000 C   0  0  0  0  0  0  0  0  0  0  0  0
   18.4069  -14.6923    0.0000 C   0  0  0  0  0  0  0  0  0  0  0  0
   15.3719  -14.0473    0.0000 C   0  0  0  0  0  0  0  0  0  0  0  0
   20.4852  -10.3764    0.0000 C   0  0  0  0  0  0  0  0  0  0  0  0
   21.6381  -11.4142    0.0000 O   0  0  0  0  0  0  0  0  0  0  0  0
   20.8079   -8.8590    0.0000 N   0  0  0  0  0  0  0  0  0  0  0  0
   19.7698   -7.7061    0.0000 C   0  0  0  0  0  0  0  0  0  0  0  0
   20.5454   -6.3628    0.0000 C   0  0  0  0  0  0  0  0  0  0  0  0
   22.0629   -6.6851    0.0000 C   0  0  0  0  0  0  0  0  0  0  0  0
   22.2252   -8.2279    0.0000 C   0  0  2  0  0  0  0  0  0  0  0  0
   23.5685   -9.0036    0.0000 C   0  0  0  0  0  0  0  0  0  0  0  0
   23.5685  -10.5549    0.0000 N   0  0  0  0  0  0  0  0  0  0  0  0
   24.9120  -11.3305    0.0000 C   0  0  0  0  0  0  0  0  0  0  0  0
   24.9120  -12.8818    0.0000 O   0  0  0  0  0  0  0  0  0  0  0  0
   26.2554  -10.5549    0.0000 C   0  0  2  0  0  0  0  0  0  0  0  0
   26.2554   -9.0036    0.0000 C   0  0  0  0  0  0  0  0  0  0  0  0
   27.5987   -8.2279    0.0000 C   0  0  1  0  0  0  0  0  0  0  0  0
   28.9422   -9.0036    0.0000 C   0  0  0  0  0  0  0  0  0  0  0  0
   28.9422  -10.5549    0.0000 C   0  0  0  0  0  0  0  0  0  0  0  0
   27.5987  -11.3305    0.0000 C   0  0  2  0  0  0  0  0  0  0  0  0
   27.8573  -10.2963    0.0000 C   0  0  0  0  0  0  0  0  0  0  0  0
   27.8573   -9.2623    0.0000 C   0  0  0  0  0  0  0  0  0  0  0  0
  1  2  1  0  0  0  0
  2  3  1  0  0  0  0
  2  9  1  0  0  0  0
  3  4  1  0  0  0  0
  4  5  1  0  0  0  0
  5  6  1  0  0  0  0
  5  7  1  0  0  0  0
  5  8  1  0  0  0  0
  9 10  2  0  0  0  0
  9 11  1  0  0  0  0
 11 12  1  0  0  0  0
 12 13  1  0  0  0  0
 13 14  1  0  0  0  0
 15 14  1  0  0  0  0
 15 11  1  0  0  0  0
 15 16  1  6  0  0  0
 16 17  1  0  0  0  0
 17 18  1  0  0  0  0
 18 19  2  0  0  0  0
 20 18  1  6  0  0  0
 20 21  1  0  0  0  0
 20 25  1  0  0  0  0
 22 21  1  1  0  0  0
 22 23  1  0  0  0  0
 22 27  1  0  0  0  0
 23 24  1  0  0  0  0
 25 24  1  1  0  0  0
 25 26  1  0  0  0  0
 26 27  2  0  0  0  0
M  END
$$$$
