Z4886816179
 OpenBabel05312414472D

 32 35  0  0  0  0  0  0  0  0999 V2000
   -3.4596    0.8812    0.0000 O   0  0  0  0  0  0  0  0  0  0  0  0
   -4.1741    0.4687    0.0000 C   0  0  0  0  0  0  0  0  0  0  0  0
   -2.8465    0.3292    0.0000 C   0  0  0  0  0  0  0  0  0  0  0  0
   -2.0215    0.3292    0.0000 C   0  0  3  0  0  0  0  0  0  0  0  0
   -2.0215    1.1542    0.0000 C   0  0  0  0  0  0  0  0  0  0  0  0
   -1.1965    0.3292    0.0000 N   0  0  0  0  0  0  0  0  0  0  0  0
   -2.0215   -0.4957    0.0000 C   0  0  0  0  0  0  0  0  0  0  0  0
   -2.7360   -0.9082    0.0000 C   0  0  0  0  0  0  0  0  0  0  0  0
   -1.3070   -0.9082    0.0000 C   0  0  0  0  0  0  0  0  0  0  0  0
   -0.7840   -0.3852    0.0000 C   0  0  0  0  0  0  0  0  0  0  0  0
   -0.7840   -1.2102    0.0000 O   0  0  0  0  0  0  0  0  0  0  0  0
    0.0409   -0.3852    0.0000 C   0  0  0  0  0  0  0  0  0  0  0  0
    0.4534   -1.0996    0.0000 C   0  0  0  0  0  0  0  0  0  0  0  0
    1.2785   -1.0996    0.0000 C   0  0  0  0  0  0  0  0  0  0  0  0
    1.6910   -0.3853    0.0000 C   0  0  0  0  0  0  0  0  0  0  0  0
    1.2785    0.3292    0.0000 C   0  0  0  0  0  0  0  0  0  0  0  0
    0.4534    0.3292    0.0000 C   0  0  0  0  0  0  0  0  0  0  0  0
    2.5160   -0.3853    0.0000 N   0  0  0  0  0  0  0  0  0  0  0  0
    1.6911    1.0436    0.0000 S   0  0  0  0  0  0  0  0  0  0  0  0
    2.1036    1.7581    0.0000 N   0  0  0  0  0  0  0  0  0  0  0  0
    2.9286    1.7581    0.0000 C   0  0  0  0  0  0  0  0  0  0  0  0
    3.3411    2.4726    0.0000 C   0  0  0  0  0  0  0  0  0  0  0  0
    2.9286    3.1870    0.0000 C   0  0  0  0  0  0  0  0  0  0  0  0
    2.1036    3.1871    0.0000 C   0  0  0  0  0  0  0  0  0  0  0  0
    1.6910    2.4726    0.0000 C   0  0  0  0  0  0  0  0  0  0  0  0
    2.4055    0.6311    0.0000 O   0  0  0  0  0  0  0  0  0  0  0  0
    0.9766    1.4561    0.0000 O   0  0  0  0  0  0  0  0  0  0  0  0
    2.9285   -1.0998    0.0000 C   0  0  0  0  0  0  0  0  0  0  0  0
    3.7536   -1.0998    0.0000 C   0  0  0  0  0  0  0  0  0  0  0  0
    4.1660   -0.3853    0.0000 C   0  0  0  0  0  0  0  0  0  0  0  0
    3.7536    0.3291    0.0000 C   0  0  0  0  0  0  0  0  0  0  0  0
    2.9285    0.3291    0.0000 C   0  0  0  0  0  0  0  0  0  0  0  0
  1  3  1  0  0  0  0
  2  1  1  0  0  0  0
  3  4  1  0  0  0  0
  4  5  1  0  0  0  0
  4  7  1  0  0  0  0
  4  6  1  0  0  0  0
  6 10  1  0  0  0  0
  7  8  1  0  0  0  0
  7  9  1  0  0  0  0
  8  9  1  0  0  0  0
 10 12  1  0  0  0  0
 10 11  2  0  0  0  0
 12 13  2  0  0  0  0
 13 14  1  0  0  0  0
 14 15  2  0  0  0  0
 15 16  1  0  0  0  0
 15 18  1  0  0  0  0
 16 17  2  0  0  0  0
 16 19  1  0  0  0  0
 17 12  1  0  0  0  0
 18 28  1  0  0  0  0
 18 32  1  0  0  0  0
 19 20  1  0  0  0  0
 19 26  2  0  0  0  0
 19 27  2  0  0  0  0
 20 21  1  0  0  0  0
 20 25  1  0  0  0  0
 21 22  1  0  0  0  0
 22 23  1  0  0  0  0
 23 24  1  0  0  0  0
 24 25  1  0  0  0  0
 28 29  1  0  0  0  0
 29 30  1  0  0  0  0
 30 31  1  0  0  0  0
 31 32  1  0  0  0  0
M  END
$$$$
