Z4886816121
 OpenBabel05312414462D

 34 37  0  0  0  0  0  0  0  0999 V2000
   -2.9910    2.6553    0.0000 C   0  0  0  0  0  0  0  0  0  0  0  0
   -3.7055    2.2428    0.0000 O   0  0  0  0  0  0  0  0  0  0  0  0
   -3.7055    1.4177    0.0000 C   0  0  0  0  0  0  0  0  0  0  0  0
   -2.9910    1.0053    0.0000 C   0  0  0  0  0  0  0  0  0  0  0  0
   -2.2765    1.4177    0.0000 C   0  0  0  0  0  0  0  0  0  0  0  0
   -2.2765    2.2428    0.0000 O   0  0  0  0  0  0  0  0  0  0  0  0
   -3.6607    3.1678    0.0000 C   0  0  0  0  0  0  0  0  0  0  0  0
   -2.1875    3.1250    0.0000 C   0  0  0  0  0  0  0  0  0  0  0  0
   -2.9910    0.1803    0.0000 C   0  0  0  0  0  0  0  0  0  0  0  0
   -3.7055   -0.2321    0.0000 O   0  0  0  0  0  0  0  0  0  0  0  0
   -2.2373    0.6697    0.0000 N   0  0  0  0  0  0  0  0  0  0  0  0
   -2.1511   -0.1506    0.0000 C   0  0  0  0  0  0  0  0  0  0  0  0
   -1.3665   -0.4056    0.0000 C   0  0  0  0  0  0  0  0  0  0  0  0
   -2.7923   -0.6698    0.0000 O   0  0  0  0  0  0  0  0  0  0  0  0
   -1.1950   -1.2125    0.0000 C   0  0  0  0  0  0  0  0  0  0  0  0
   -0.4103   -1.4675    0.0000 C   0  0  0  0  0  0  0  0  0  0  0  0
    0.2027   -0.9155    0.0000 C   0  0  0  0  0  0  0  0  0  0  0  0
    0.0312   -0.1085    0.0000 C   0  0  0  0  0  0  0  0  0  0  0  0
   -0.7534    0.1464    0.0000 C   0  0  0  0  0  0  0  0  0  0  0  0
    0.9873   -1.1705    0.0000 N   0  0  0  0  0  0  0  0  0  0  0  0
    0.6444    0.4434    0.0000 S   0  0  0  0  0  0  0  0  0  0  0  0
    1.1589   -1.9775    0.0000 C   0  0  0  0  0  0  0  0  0  0  0  0
    1.9436   -2.2325    0.0000 C   0  0  0  0  0  0  0  0  0  0  0  0
    2.5566   -1.6804    0.0000 C   0  0  0  0  0  0  0  0  0  0  0  0
    2.3852   -0.8734    0.0000 C   0  0  0  0  0  0  0  0  0  0  0  0
    1.6004   -0.6185    0.0000 C   0  0  0  0  0  0  0  0  0  0  0  0
    0.4729    1.2504    0.0000 N   0  0  0  0  0  0  0  0  0  0  0  0
    1.0860    1.8024    0.0000 C   0  0  0  0  0  0  0  0  0  0  0  0
    0.9144    2.6095    0.0000 C   0  0  0  0  0  0  0  0  0  0  0  0
    0.1298    2.8643    0.0000 C   0  0  0  0  0  0  0  0  0  0  0  0
   -0.4832    2.3124    0.0000 C   0  0  0  0  0  0  0  0  0  0  0  0
   -0.3117    1.5053    0.0000 C   0  0  0  0  0  0  0  0  0  0  0  0
    1.4290    0.1884    0.0000 O   0  0  0  0  0  0  0  0  0  0  0  0
   -0.1402    0.6983    0.0000 O   0  0  0  0  0  0  0  0  0  0  0  0
  1  7  1  0  0  0  0
  1  8  1  0  0  0  0
  1  6  1  0  0  0  0
  1  2  1  0  0  0  0
  2  3  1  0  0  0  0
  3  4  1  0  0  0  0
  4  5  1  0  0  0  0
  4  9  1  0  0  0  0
  4 11  1  0  0  0  0
  5  6  1  0  0  0  0
  9 10  1  0  0  0  0
 11 12  1  0  0  0  0
 12 13  1  0  0  0  0
 12 14  2  0  0  0  0
 13 15  2  0  0  0  0
 15 16  1  0  0  0  0
 16 17  2  0  0  0  0
 17 18  1  0  0  0  0
 17 20  1  0  0  0  0
 18 19  2  0  0  0  0
 18 21  1  0  0  0  0
 19 13  1  0  0  0  0
 20 22  1  0  0  0  0
 20 26  1  0  0  0  0
 21 27  1  0  0  0  0
 21 33  2  0  0  0  0
 21 34  2  0  0  0  0
 22 23  1  0  0  0  0
 23 24  1  0  0  0  0
 24 25  1  0  0  0  0
 25 26  1  0  0  0  0
 27 28  1  0  0  0  0
 27 32  1  0  0  0  0
 28 29  1  0  0  0  0
 29 30  1  0  0  0  0
 30 31  1  0  0  0  0
 31 32  1  0  0  0  0
M  END
$$$$
