
##########                                Name:      NVB_A1133_3LPB
##########                    Molecular_Weight:              465.53
##########                DOCK_Rotatable_Bonds:                   7
##########                       Formal_Charge:        -0.000200078
##########                     HBond_Acceptors:                   9
##########                        HBond_Donors:                   1
##########                         Heavy_Atoms:                  33
##########                            HA_RMSDs:               0.290
##########                            HA_RMSDh:               0.290
##########                            HA_RMSDm:               0.290
##########                          Grid_Score:          -66.774391
##########                     Grid_vdw_energy:          -64.225105
##########                      Grid_es_energy:           -2.549289
##########           Internal_energy_repulsive:           15.238356

@<TRIPOS>MOLECULE
NVB_A1133_3LPB
 56 59 1 0 0
SMALL
USER_CHARGES


@<TRIPOS>ATOM
      1 C1        110.2108   64.5067    6.6363 C.3     1  <0>         0.0151
      2 C2        115.0836   69.2209   16.4697 C.3     1  <0>         0.0431
      3 C3        111.0896   65.8601   11.3641 C.3     1  <0>         0.0431
      4 C4        111.7751   65.7169   15.9770 C.3     1  <0>         0.0432
      5 C5        119.0444   66.7757    7.5416 C.ar    1  <0>        -0.0590
      6 C6        117.8727   66.0313    7.3287 C.ar    1  <0>        -0.0519
      7 C7        119.1607   67.5252    8.7237 C.ar    1  <0>        -0.0342
      8 C8        115.0196   64.3758    9.0236 C.ar    1  <0>        -0.0521
      9 C9        115.1061   65.1761    6.7097 C.ar    1  <0>        -0.0521
     10 C10       113.8914   63.6185    8.7118 C.ar    1  <0>        -0.0345
     11 C11       113.9940   64.3847    6.3889 C.ar    1  <0>        -0.0345
     12 C12       115.2046   67.7903   13.8433 C.ar    1  <0>        -0.0198
     13 C13       113.8109   66.8134   12.1466 C.ar    1  <0>        -0.0198
     14 C14       117.2852   68.2086   11.7597 C.ar    1  <0>         0.0542
     15 C15       115.6288   65.1759    8.0187 C.ar    1  <0>        -0.0157
     16 C16       113.3892   63.6013    7.4017 C.ar    1  <0>         0.1082
     17 C17       116.8330   66.0027    8.2932 C.ar    1  <0>         0.0096
     18 C18       118.1270   67.5048    9.6835 C.ar    1  <0>         0.0898
     19 C19       115.0124   67.3804   12.5209 C.ar    1  <0>         0.0069
     20 C20       114.1500   67.6651   14.7831 C.ar    1  <0>         0.1088
     21 C21       112.7532   66.7080   13.0682 C.ar    1  <0>         0.1088
     22 C22       116.1268   67.4635   11.5382 C.ar    1  <0>         0.0899
     23 C23       116.9826   66.7168    9.4842 C.ar    1  <0>         0.0975
     24 C24       112.9367   67.1332   14.3869 C.ar    1  <0>         0.1357
     25 N1        118.2534   68.2127   10.8237 N.ar    1  <0>        -0.2513
     26 N2        115.9996   66.7165   10.4118 N.ar    1  <0>        -0.2430
     27 N3        111.0812   63.4973    6.0585 N.pl3   1  <0>        -0.2505
     28 O1        111.1387   62.3899    8.1919 O.2     1  <0>        -0.1503
     29 O2        112.4168   61.4319    6.3198 O.2     1  <0>        -0.1503
     30 O3        114.2747   68.0963   16.0962 O.3     1  <0>        -0.3452
     31 O4        111.5105   66.1874   12.7225 O.3     1  <0>        -0.3452
     32 O5        111.9173   67.0000   15.3155 O.3     1  <0>        -0.3430
     33 S1        111.9797   62.5810    7.0396 S.o2    1  <0>         0.0680
     34 H1        109.6763   65.0343    5.8325 H       1  <0>         0.0439
     35 H2        109.4829   64.0238    7.3049 H       1  <0>         0.0439
     36 H3        110.8140   65.2264    7.2091 H       1  <0>         0.0439
     37 H4        115.0258   69.3695   17.5581 H       1  <0>         0.0529
     38 H5        116.1281   69.0334   16.1804 H       1  <0>         0.0529
     39 H6        114.7171   70.1224   15.9568 H       1  <0>         0.0529
     40 H7        110.0624   65.4669   11.3826 H       1  <0>         0.0529
     41 H8        111.1240   66.7663   10.7413 H       1  <0>         0.0529
     42 H9        111.7653   65.1005   10.9440 H       1  <0>         0.0529
     43 H10       110.9315   65.7587   16.6817 H       1  <0>         0.0529
     44 H11       111.5867   64.9361   15.2255 H       1  <0>         0.0529
     45 H12       112.6995   65.4829   16.5254 H       1  <0>         0.0529
     46 H13       119.8400   66.7719    6.8112 H       1  <0>         0.0618
     47 H14       117.7610   65.4698    6.4129 H       1  <0>         0.0624
     48 H15       120.0452   68.1198    8.8987 H       1  <0>         0.0639
     49 H16       115.4285   64.3548   10.0229 H       1  <0>         0.0624
     50 H17       115.5652   65.7897    5.9487 H       1  <0>         0.0624
     51 H18       113.4014   63.0422    9.4826 H       1  <0>         0.0637
     52 H19       113.6035   64.3727    5.3820 H       1  <0>         0.0637
     53 H20       116.1552   68.2018   14.1490 H       1  <0>         0.0651
     54 H21       113.6819   66.4478   11.1386 H       1  <0>         0.0651
     55 H22       117.4042   68.7756   12.6712 H       1  <0>         0.0851
     56 H23       110.4892   62.8711    5.5512 H       1  <0>         0.1669
@<TRIPOS>BOND
     1     1    27    1
     2     2    30    1
     3     3    31    1
     4     4    32    1
     5     5     6   ar
     6     5     7   ar
     7     6    17   ar
     8     7    18   ar
     9     8    10   ar
    10     8    15   ar
    11     9    11   ar
    12     9    15   ar
    13    10    16   ar
    14    11    16   ar
    15    12    19   ar
    16    12    20   ar
    17    13    19   ar
    18    13    21   ar
    19    14    22   ar
    20    14    25   ar
    21    15    17    1
    22    16    33    1
    23    17    23   ar
    24    18    23   ar
    25    18    25   ar
    26    19    22    1
    27    20    24   ar
    28    20    30    1
    29    21    24   ar
    30    21    31    1
    31    22    26   ar
    32    23    26   ar
    33    24    32    1
    34    27    33    1
    35    28    33    2
    36    29    33    2
    37     1    34    1
    38     1    35    1
    39     1    36    1
    40     2    37    1
    41     2    38    1
    42     2    39    1
    43     3    40    1
    44     3    41    1
    45     3    42    1
    46     4    43    1
    47     4    44    1
    48     4    45    1
    49     5    46    1
    50     6    47    1
    51     7    48    1
    52     8    49    1
    53     9    50    1
    54    10    51    1
    55    11    52    1
    56    12    53    1
    57    13    54    1
    58    14    55    1
    59    27    56    1
@<TRIPOS>SUBSTRUCTURE
     1 <0>         1 TEMP              0 ****  ****    0 ROOT

