
##########                                Name:        DNC_302_3BWM
##########                    Molecular_Weight:             200.108
##########                DOCK_Rotatable_Bonds:                   2
##########                       Formal_Charge:         0.000300005
##########                     HBond_Acceptors:                   8
##########                        HBond_Donors:                   2
##########                         Heavy_Atoms:                  14
##########                            HA_RMSDs:               0.251
##########                            HA_RMSDh:               0.251
##########                            HA_RMSDm:               0.251
##########                          Grid_Score:          -14.923002
##########                     Grid_vdw_energy:          -16.258640
##########                      Grid_es_energy:            1.335638
##########           Internal_energy_repulsive:            8.283983

@<TRIPOS>MOLECULE
DNC_302_3BWM
 18 18 1 0 0
SMALL
USER_CHARGES


@<TRIPOS>ATOM
      1 C1         -3.6109  -12.0297  -18.8598 C.ar    1  <0>        -0.0030
      2 C2         -4.2201  -13.3792  -16.9205 C.ar    1  <0>        -0.0013
      3 C3         -3.7577  -13.2679  -18.2340 C.ar    1  <0>         0.1217
      4 C4         -3.9287  -10.8496  -18.2026 C.ar    1  <0>         0.1511
      5 C5         -4.5614  -12.2554  -16.1879 C.ar    1  <0>         0.1063
      6 C6         -4.4274  -10.9251  -16.8158 C.ar    1  <0>         0.1307
      7 N1         -3.4040  -14.4241  -18.9393 N.pl3   1  <0>         0.0926
      8 N2         -3.7667   -9.6119  -18.8371 N.pl3   1  <0>         0.0951
      9 O1         -5.0241  -12.3640  -14.9096 O.3     1  <0>        -0.3572
     10 O2         -4.7502   -9.8092  -16.1124 O.3     1  <0>        -0.3557
     11 O3         -3.0048  -14.3017  -20.0813 O.2     1  <0>        -0.1369
     12 O4         -3.4667  -15.5441  -18.4197 O.2     1  <0>        -0.1369
     13 O5         -4.3145   -8.6077  -18.4143 O.2     1  <0>        -0.1368
     14 O6         -3.0564   -9.5252  -19.8218 O.2     1  <0>        -0.1368
     15 H1         -3.2430  -11.9888  -19.8745 H       1  <0>         0.0660
     16 H2         -4.3125  -14.3565  -16.4699 H       1  <0>         0.0665
     17 H3         -5.1433  -11.4967  -14.5407 H       1  <0>         0.2174
     18 H4         -4.7188   -9.0526  -16.6860 H       1  <0>         0.2175
@<TRIPOS>BOND
     1     1     3   ar
     2     1     4   ar
     3     2     3   ar
     4     2     5   ar
     5     3     7    1
     6     4     6   ar
     7     4     8    1
     8     5     6   ar
     9     5     9    1
    10     6    10    1
    11     7    11    2
    12     7    12    2
    13     8    13    2
    14     8    14    2
    15     1    15    1
    16     2    16    1
    17     9    17    1
    18    10    18    1
@<TRIPOS>SUBSTRUCTURE
     1 <0>         1 TEMP              0 ****  ****    0 ROOT

