
##########                                Name:          88Z_1_3LQ8
##########                    Molecular_Weight:             633.672
##########                DOCK_Rotatable_Bonds:                  14
##########                       Formal_Charge:                   1
##########                     HBond_Acceptors:                  12
##########                        HBond_Donors:                   3
##########                         Heavy_Atoms:                  46
##########                            HA_RMSDs:               0.451
##########                            HA_RMSDh:               0.451
##########                            HA_RMSDm:               0.451
##########                          Grid_Score:         -124.347687
##########                     Grid_vdw_energy:          -84.730988
##########                      Grid_es_energy:          -39.616699
##########           Internal_energy_repulsive:           19.303425

@<TRIPOS>MOLECULE
88Z_1_3LQ8
 81 86 1 0 0
SMALL
USER_CHARGES


@<TRIPOS>ATOM
      1 C1         -4.2085    0.4268   30.8339 C.3     1  <0>         0.0431
      2 C2          8.0511    5.2502   25.0427 C.ar    1  <0>        -0.0378
      3 C3          9.5132    3.2965   24.9847 C.ar    1  <0>        -0.0378
      4 C4          8.0446    5.3591   23.6457 C.ar    1  <0>        -0.0247
      5 C5          9.5083    3.3944   23.5874 C.ar    1  <0>        -0.0247
      6 C6          2.9434    3.6381   28.8747 C.ar    1  <0>        -0.0378
      7 C7          1.6022    3.4853   29.1463 C.ar    1  <0>        -0.0266
      8 C8         -0.5255    6.0056   30.5653 C.ar    1  <0>        -0.0124
      9 C9         -1.4375    7.0706   30.3425 C.ar    1  <0>         0.0307
     10 C10         3.4546    4.2014   31.1795 C.ar    1  <0>        -0.0026
     11 C11        -2.8813    3.1216   30.7328 C.ar    1  <0>        -0.0175
     12 C12        -4.6694    5.3825   30.3894 C.ar    1  <0>        -0.0031
     13 C13         8.6656    2.9019   29.9392 C.3     1  <0>        -0.0292
     14 C14         8.7425    4.4160   30.1191 C.3     1  <0>        -0.0292
     15 C15       -10.7633    2.1136   28.2580 C.3     1  <0>        -0.0078
     16 C16       -11.6211    3.2522   30.3524 C.3     1  <0>        -0.0078
     17 C17       -12.2079    2.0398   27.7569 C.3     1  <0>         0.0878
     18 C18       -12.9533    3.2257   29.5848 C.3     1  <0>         0.0878
     19 C19        -8.8142    3.8032   30.7955 C.3     1  <0>         0.0114
     20 C20        -9.3352    3.7553   29.3787 C.3     1  <0>        -0.0296
     21 C21        -7.5432    4.6499   30.7212 C.3     1  <0>         0.0591
     22 C22         8.7424    4.2245   25.7171 C.ar    1  <0>         0.0336
     23 C23         8.8099    4.4089   22.9263 C.ar    1  <0>         0.1235
     24 C24         3.8663    4.0107   29.8655 C.ar    1  <0>         0.0363
     25 C25         1.1476    3.6909   30.4336 C.ar    1  <0>         0.1183
     26 C26        -0.9810    4.6756   30.6798 C.ar    1  <0>         0.0939
     27 C27        -2.4053    4.4138   30.6176 C.ar    1  <0>         0.0335
     28 C28        -3.2962    5.5911   30.4333 C.ar    1  <0>         0.0760
     29 C29        -4.2671    2.9155   30.6658 C.ar    1  <0>         0.1064
     30 C30        -5.1599    4.0735   30.4909 C.ar    1  <0>         0.1081
     31 C31         2.0997    4.0635   31.4857 C.ar    1  <0>         0.1554
     32 C32         7.5710    3.9519   27.7620 C.2     1  <0>         0.2323
     33 C33         6.2663    3.5768   30.0129 C.2     1  <0>         0.2323
     34 C34         7.5877    3.7999   29.3001 C.3     1  <0>         0.1233
     35 N1         -2.7647    6.8248   30.3245 N.ar    1  <0>        -0.2547
     36 N2          8.7232    4.1275   27.0869 N.am    1  <0>        -0.2846
     37 N3          5.1591    4.1491   29.4951 N.am    1  <0>        -0.2846
     38 N4        -10.6619    3.1883   29.2530 N.4     1  <0>         0.2385
     39 O1          6.5187    4.3111   27.2196 O.2     1  <0>        -0.2743
     40 O2          6.2751    2.8738   30.9949 O.2     1  <0>        -0.2743
     41 O3        -13.0128    1.9536   28.9235 O.3     1  <0>        -0.3693
     42 O4         -4.8938    1.6769   30.7318 O.3     1  <0>        -0.3453
     43 O5         -6.4738    3.7374   30.4476 O.3     1  <0>        -0.3419
     44 O6         -0.1591    3.5720   30.8129 O.3     1  <0>        -0.3057
     45 F1          8.8742    4.4649   21.5783 F       1  <0>        -0.2055
     46 F2          1.5738    4.2576   32.7069 F       1  <0>        -0.2027
     47 H1         -4.9420   -0.3921   30.8689 H       1  <0>         0.0529
     48 H2         -3.5538    0.2953   29.9599 H       1  <0>         0.0529
     49 H3         -3.6021    0.4152   31.7516 H       1  <0>         0.0529
     50 H4          7.5060    5.9794   25.6237 H       1  <0>         0.0637
     51 H5         10.0897    2.5335   25.4866 H       1  <0>         0.0637
     52 H6          7.4826    6.1312   23.1413 H       1  <0>         0.0647
     53 H7         10.0577    2.6684   23.0066 H       1  <0>         0.0647
     54 H8          3.2965    3.4661   27.8687 H       1  <0>         0.0637
     55 H9          0.9140    3.2080   28.3615 H       1  <0>         0.0645
     56 H10         0.5304    6.2164   30.6481 H       1  <0>         0.0659
     57 H11        -1.0705    8.0745   30.1878 H       1  <0>         0.0830
     58 H12         4.1698    4.4516   31.9492 H       1  <0>         0.0666
     59 H13        -2.2037    2.2920   30.8708 H       1  <0>         0.0651
     60 H14        -5.3478    6.2155   30.2790 H       1  <0>         0.0666
     61 H15         9.3756    2.1978   29.4809 H       1  <0>         0.0280
     62 H16         8.5782    2.0956   30.6822 H       1  <0>         0.0280
     63 H17         8.7274    5.0323   31.0300 H       1  <0>         0.0280
     64 H18         9.5237    5.1345   29.8303 H       1  <0>         0.0280
     65 H19       -10.4810    1.1550   28.7177 H       1  <0>         0.0837
     66 H20       -10.0888    2.3241   27.4149 H       1  <0>         0.0837
     67 H21       -11.5046    4.1637   30.9571 H       1  <0>         0.0837
     68 H22       -11.5205    2.4040   31.0456 H       1  <0>         0.0837
     69 H23       -12.4640    2.9351   27.1713 H       1  <0>         0.0613
     70 H24       -12.3541    1.1580   27.1158 H       1  <0>         0.0613
     71 H25       -13.8000    3.3403   30.2776 H       1  <0>         0.0613
     72 H26       -12.9920    4.0442   28.8509 H       1  <0>         0.0613
     73 H27        -9.5524    4.2591   31.4716 H       1  <0>         0.0339
     74 H28        -8.5929    2.7923   31.1684 H       1  <0>         0.0339
     75 H29        -9.3699    4.7860   28.9956 H       1  <0>         0.0815
     76 H30        -8.6453    3.1376   28.7849 H       1  <0>         0.0815
     77 H31        -7.6249    5.4016   29.9223 H       1  <0>         0.0567
     78 H32        -7.3710    5.1743   31.6727 H       1  <0>         0.0567
     79 H33         9.5829    4.1885   27.5940 H       1  <0>         0.1548
     80 H34         5.3184    4.7661   28.7243 H       1  <0>         0.1548
     81 H35       -11.1524    3.9534   28.8359 H       1  <0>         0.2035
@<TRIPOS>BOND
     1     1    42    1
     2     2     4   ar
     3     2    22   ar
     4     3     5   ar
     5     3    22   ar
     6     4    23   ar
     7     5    23   ar
     8     6     7   ar
     9     6    24   ar
    10     7    25   ar
    11     8     9   ar
    12     8    26   ar
    13     9    35   ar
    14    10    24   ar
    15    10    31   ar
    16    11    27   ar
    17    11    29   ar
    18    12    28   ar
    19    12    30   ar
    20    13    14    1
    21    13    34    1
    22    14    34    1
    23    15    17    1
    24    15    38    1
    25    16    18    1
    26    16    38    1
    27    17    41    1
    28    18    41    1
    29    19    20    1
    30    19    21    1
    31    20    38    1
    32    21    43    1
    33    22    36    1
    34    23    45    1
    35    24    37    1
    36    25    31   ar
    37    25    44    1
    38    26    27   ar
    39    26    44    1
    40    27    28   ar
    41    28    35   ar
    42    29    30   ar
    43    29    42    1
    44    30    43    1
    45    31    46    1
    46    32    34    1
    47    32    36   am
    48    32    39    2
    49    33    34    1
    50    33    37   am
    51    33    40    2
    52     1    47    1
    53     1    48    1
    54     1    49    1
    55     2    50    1
    56     3    51    1
    57     4    52    1
    58     5    53    1
    59     6    54    1
    60     7    55    1
    61     8    56    1
    62     9    57    1
    63    10    58    1
    64    11    59    1
    65    12    60    1
    66    13    61    1
    67    13    62    1
    68    14    63    1
    69    14    64    1
    70    15    65    1
    71    15    66    1
    72    16    67    1
    73    16    68    1
    74    17    69    1
    75    17    70    1
    76    18    71    1
    77    18    72    1
    78    19    73    1
    79    19    74    1
    80    20    75    1
    81    20    76    1
    82    21    77    1
    83    21    78    1
    84    36    79    1
    85    37    80    1
    86    38    81    1
@<TRIPOS>SUBSTRUCTURE
     1 <0>         1 TEMP              0 ****  ****    0 ROOT

