
##########                                Name:          88Z_1_3LQ8
##########                    Molecular_Weight:             633.672
##########                DOCK_Rotatable_Bonds:                  14
##########                       Formal_Charge:                   1
##########                     HBond_Acceptors:                  12
##########                        HBond_Donors:                   3
##########                         Heavy_Atoms:                  46
##########                            HA_RMSDs:               0.470
##########                            HA_RMSDh:               0.470
##########                            HA_RMSDm:               0.469
##########                          Grid_Score:         -126.763405
##########                     Grid_vdw_energy:          -84.982582
##########                      Grid_es_energy:          -41.780823
##########           Internal_energy_repulsive:           24.038761

@<TRIPOS>MOLECULE
88Z_1_3LQ8
 81 86 1 0 0
SMALL
USER_CHARGES


@<TRIPOS>ATOM
      1 C1         -4.2145    0.3910   30.9624 C.3     1  <0>         0.0431
      2 C2          8.0849    5.3390   24.9439 C.ar    1  <0>        -0.0378
      3 C3          9.4461    3.3149   24.8517 C.ar    1  <0>        -0.0378
      4 C4          8.0623    5.4572   23.5478 C.ar    1  <0>        -0.0247
      5 C5          9.4245    3.4222   23.4552 C.ar    1  <0>        -0.0247
      6 C6          2.9252    3.6462   28.6474 C.ar    1  <0>        -0.0378
      7 C7          1.5866    3.4931   28.9313 C.ar    1  <0>        -0.0266
      8 C8         -0.5314    5.9546   30.3709 C.ar    1  <0>        -0.0124
      9 C9         -1.4508    7.0143   30.1537 C.ar    1  <0>         0.0307
     10 C10         3.4733    4.1074   30.9664 C.ar    1  <0>        -0.0026
     11 C11        -2.8713    3.0603   30.5774 C.ar    1  <0>        -0.0175
     12 C12        -4.6740    5.3111   30.2443 C.ar    1  <0>        -0.0031
     13 C13         8.6205    2.9735   29.8201 C.3     1  <0>        -0.0292
     14 C14         8.8251    4.4745   30.0085 C.3     1  <0>        -0.0292
     15 C15       -10.2223    2.2335   27.3092 C.3     1  <0>        -0.0078
     16 C16       -11.1209    2.2982   29.6772 C.3     1  <0>        -0.0078
     17 C17       -11.6621    2.0816   26.8117 C.3     1  <0>         0.0878
     18 C18       -12.4773    2.3124   28.9530 C.3     1  <0>         0.0878
     19 C19        -8.8304    3.7585   30.4702 C.3     1  <0>         0.0114
     20 C20        -9.0352    3.5631   28.9866 C.3     1  <0>        -0.0296
     21 C21        -7.5413    4.5723   30.5878 C.3     1  <0>         0.0591
     22 C22         8.7342    4.2756   25.6015 C.ar    1  <0>         0.0336
     23 C23         8.7677    4.4747   22.8111 C.ar    1  <0>         0.1235
     24 C24         3.8650    3.9689   29.6398 C.ar    1  <0>         0.0363
     25 C25         1.1517    3.6479   30.2326 C.ar    1  <0>         0.1183
     26 C26        -0.9792    4.6230   30.4963 C.ar    1  <0>         0.0939
     27 C27        -2.4029    4.3542   30.4513 C.ar    1  <0>         0.0335
     28 C28        -3.3013    5.5265   30.2718 C.ar    1  <0>         0.0760
     29 C29        -4.2568    2.8473   30.5269 C.ar    1  <0>         0.1064
     30 C30        -5.1570    4.0003   30.3569 C.ar    1  <0>         0.1081
     31 C31         2.1216    3.9678   31.2858 C.ar    1  <0>         0.1554
     32 C32         7.5802    4.1273   27.6690 C.2     1  <0>         0.2323
     33 C33         6.2867    3.8432   29.9395 C.2     1  <0>         0.2323
     34 C34         7.6099    3.9623   29.2055 C.3     1  <0>         0.1233
     35 N1         -2.7770    6.7621   30.1516 N.ar    1  <0>        -0.2547
     36 N2          8.7313    4.1707   26.9709 N.am    1  <0>        -0.2846
     37 N3          5.1537    4.1122   29.2571 N.am    1  <0>        -0.2846
     38 N4        -10.2449    2.8443   28.6440 N.4     1  <0>         0.2385
     39 O1          6.5672    4.6128   27.1508 O.2     1  <0>        -0.2743
     40 O2          6.3197    3.4868   31.0930 O.2     1  <0>        -0.2743
     41 O3        -12.3551    1.4037   27.8492 O.3     1  <0>        -0.3693
     42 O4         -4.8768    1.6061   30.6053 O.3     1  <0>        -0.3453
     43 O5         -6.4696    3.6579   30.3298 O.3     1  <0>        -0.3419
     44 O6         -0.1505    3.5239   30.6251 O.3     1  <0>        -0.3057
     45 F1          8.8140    4.5362   21.4626 F       1  <0>        -0.2055
     46 F2          1.6145    4.1145   32.5213 F       1  <0>        -0.2027
     47 H1         -4.9363   -0.4388   30.9469 H       1  <0>         0.0529
     48 H2         -3.4076    0.1883   30.2428 H       1  <0>         0.0529
     49 H3         -3.7895    0.4883   31.9723 H       1  <0>         0.0529
     50 H4          7.5861    6.0908   25.5377 H       1  <0>         0.0637
     51 H5          9.9912    2.5208   25.3401 H       1  <0>         0.0637
     52 H6          7.5321    6.2598   23.0568 H       1  <0>         0.0647
     53 H7          9.9277    2.6733   22.8617 H       1  <0>         0.0647
     54 H8          3.2628    3.5139   27.6301 H       1  <0>         0.0637
     55 H9          0.8851    3.2549   28.1454 H       1  <0>         0.0645
     56 H10         0.5244    6.1708   30.4410 H       1  <0>         0.0659
     57 H11        -1.0904    8.0193   29.9906 H       1  <0>         0.0830
     58 H12         4.2013    4.3189   31.7356 H       1  <0>         0.0666
     59 H13        -2.1883    2.2345   30.7115 H       1  <0>         0.0651
     60 H14        -5.3575    6.1405   30.1378 H       1  <0>         0.0666
     61 H15         9.2622    2.2168   29.3451 H       1  <0>         0.0280
     62 H16         8.4792    2.1712   30.5592 H       1  <0>         0.0280
     63 H17         8.8761    5.0828   30.9236 H       1  <0>         0.0280
     64 H18         9.6581    5.1284   29.7111 H       1  <0>         0.0280
     65 H19        -9.7421    1.2453   27.3618 H       1  <0>         0.0837
     66 H20        -9.6569    2.8752   26.6174 H       1  <0>         0.0837
     67 H21       -11.1268    2.9135   30.5891 H       1  <0>         0.0837
     68 H22       -10.8223    1.2858   29.9869 H       1  <0>         0.0837
     69 H23       -12.1141    3.0657   26.6186 H       1  <0>         0.0613
     70 H24       -11.6931    1.5014   25.8777 H       1  <0>         0.0613
     71 H25       -13.2803    1.9891   29.6317 H       1  <0>         0.0613
     72 H26       -12.7127    3.3254   28.5946 H       1  <0>         0.0613
     73 H27        -9.6787    4.2972   30.9175 H       1  <0>         0.0339
     74 H28        -8.7342    2.7914   30.9855 H       1  <0>         0.0339
     75 H29        -9.0878    4.5570   28.5182 H       1  <0>         0.0815
     76 H30        -8.1797    2.9901   28.5993 H       1  <0>         0.0815
     77 H31        -7.5340    5.3938   29.8564 H       1  <0>         0.0567
     78 H32        -7.4471    5.0053   31.5946 H       1  <0>         0.0567
     79 H33         9.6023    4.1256   27.4601 H       1  <0>         0.1548
     80 H34         5.2871    4.4700   28.3328 H       1  <0>         0.1548
     81 H35       -10.8920    3.6014   28.5545 H       1  <0>         0.2035
@<TRIPOS>BOND
     1     1    42    1
     2     2     4   ar
     3     2    22   ar
     4     3     5   ar
     5     3    22   ar
     6     4    23   ar
     7     5    23   ar
     8     6     7   ar
     9     6    24   ar
    10     7    25   ar
    11     8     9   ar
    12     8    26   ar
    13     9    35   ar
    14    10    24   ar
    15    10    31   ar
    16    11    27   ar
    17    11    29   ar
    18    12    28   ar
    19    12    30   ar
    20    13    14    1
    21    13    34    1
    22    14    34    1
    23    15    17    1
    24    15    38    1
    25    16    18    1
    26    16    38    1
    27    17    41    1
    28    18    41    1
    29    19    20    1
    30    19    21    1
    31    20    38    1
    32    21    43    1
    33    22    36    1
    34    23    45    1
    35    24    37    1
    36    25    31   ar
    37    25    44    1
    38    26    27   ar
    39    26    44    1
    40    27    28   ar
    41    28    35   ar
    42    29    30   ar
    43    29    42    1
    44    30    43    1
    45    31    46    1
    46    32    34    1
    47    32    36   am
    48    32    39    2
    49    33    34    1
    50    33    37   am
    51    33    40    2
    52     1    47    1
    53     1    48    1
    54     1    49    1
    55     2    50    1
    56     3    51    1
    57     4    52    1
    58     5    53    1
    59     6    54    1
    60     7    55    1
    61     8    56    1
    62     9    57    1
    63    10    58    1
    64    11    59    1
    65    12    60    1
    66    13    61    1
    67    13    62    1
    68    14    63    1
    69    14    64    1
    70    15    65    1
    71    15    66    1
    72    16    67    1
    73    16    68    1
    74    17    69    1
    75    17    70    1
    76    18    71    1
    77    18    72    1
    78    19    73    1
    79    19    74    1
    80    20    75    1
    81    20    76    1
    82    21    77    1
    83    21    78    1
    84    36    79    1
    85    37    80    1
    86    38    81    1
@<TRIPOS>SUBSTRUCTURE
     1 <0>         1 TEMP              0 ****  ****    0 ROOT

