
##########                                Name:          88Z_1_3LQ8
##########                    Molecular_Weight:             633.672
##########                DOCK_Rotatable_Bonds:                  14
##########                       Formal_Charge:                   1
##########                     HBond_Acceptors:                  12
##########                        HBond_Donors:                   3
##########                         Heavy_Atoms:                  46
##########                            HA_RMSDs:               0.350
##########                            HA_RMSDh:               0.350
##########                            HA_RMSDm:               0.350
##########                          Grid_Score:         -123.031067
##########                     Grid_vdw_energy:          -82.108612
##########                      Grid_es_energy:          -40.922455
##########           Internal_energy_repulsive:           24.640169

@<TRIPOS>MOLECULE
88Z_1_3LQ8
 81 86 1 0 0
SMALL
USER_CHARGES


@<TRIPOS>ATOM
      1 C1         -4.1679    0.3873   30.7155 C.3     1  <0>         0.0431
      2 C2          8.1960    5.6496   24.8466 C.ar    1  <0>        -0.0378
      3 C3          9.2511    3.4624   24.5989 C.ar    1  <0>        -0.0378
      4 C4          8.1562    5.8518   23.4606 C.ar    1  <0>        -0.0247
      5 C5          9.2106    3.6537   23.2119 C.ar    1  <0>        -0.0247
      6 C6          2.9142    3.6915   28.5126 C.ar    1  <0>        -0.0378
      7 C7          1.5793    3.5624   28.8244 C.ar    1  <0>        -0.0266
      8 C8         -0.4723    5.9496   30.3085 C.ar    1  <0>        -0.0124
      9 C9         -1.3867    7.0164   30.1053 C.ar    1  <0>         0.0307
     10 C10         3.5431    3.9457   30.8430 C.ar    1  <0>        -0.0026
     11 C11        -2.8330    3.0777   30.5810 C.ar    1  <0>        -0.0175
     12 C12        -4.6223    5.3430   30.2744 C.ar    1  <0>        -0.0031
     13 C13         8.5942    2.8177   29.5459 C.3     1  <0>        -0.0292
     14 C14         8.8913    4.2915   29.8108 C.3     1  <0>        -0.0292
     15 C15       -10.7104    2.7753   27.4034 C.3     1  <0>        -0.0078
     16 C16       -10.7438    1.8750   29.7713 C.3     1  <0>        -0.0078
     17 C17       -12.2019    2.4457   27.3017 C.3     1  <0>         0.0878
     18 C18       -12.2564    1.7890   29.5083 C.3     1  <0>         0.0878
     19 C19        -8.7910    3.8472   30.5118 C.3     1  <0>         0.0114
     20 C20        -9.1991    3.7553   29.0606 C.3     1  <0>        -0.0296
     21 C21        -7.4953    4.6590   30.5078 C.3     1  <0>         0.0591
     22 C22         8.7027    4.4681   25.4232 C.ar    1  <0>         0.0336
     23 C23         8.6953    4.8246   22.6483 C.ar    1  <0>         0.1235
     24 C24         3.8924    3.9008   29.4982 C.ar    1  <0>         0.0363
     25 C25         1.1867    3.6271   30.1465 C.ar    1  <0>         0.1183
     26 C26        -0.9292    4.6228   30.4508 C.ar    1  <0>         0.0939
     27 C27        -2.3559    4.3667   30.4377 C.ar    1  <0>         0.0335
     28 C28        -3.2475    5.5460   30.2712 C.ar    1  <0>         0.0760
     29 C29        -4.2211    2.8770   30.5614 C.ar    1  <0>         0.1064
     30 C30        -5.1145    4.0372   30.4045 C.ar    1  <0>         0.1081
     31 C31         2.1966    3.8277   31.1916 C.ar    1  <0>         0.1554
     32 C32         7.5780    4.1482   27.4874 C.2     1  <0>         0.2323
     33 C33         6.3190    3.8131   29.7704 C.2     1  <0>         0.2323
     34 C34         7.6309    3.8961   29.0114 C.3     1  <0>         0.1233
     35 N1         -2.7149    6.7762   30.1331 N.ar    1  <0>        -0.2547
     36 N2          8.7186    4.2843   26.7841 N.am    1  <0>        -0.2846
     37 N3          5.1744    4.0299   29.0888 N.am    1  <0>        -0.2846
     38 N4        -10.3515    2.9117   28.8204 N.4     1  <0>         0.2385
     39 O1          6.5388    4.6162   27.0061 O.2     1  <0>        -0.2743
     40 O2          6.3712    3.5301   30.9433 O.2     1  <0>        -0.2743
     41 O3        -12.4056    1.3306   28.1567 O.3     1  <0>        -0.3693
     42 O4         -4.8503    1.6419   30.6599 O.3     1  <0>        -0.3453
     43 O5         -6.4304    3.7065   30.4075 O.3     1  <0>        -0.3419
     44 O6         -0.1078    3.5169   30.5676 O.3     1  <0>        -0.3057
     45 F1          8.7166    4.9583   21.3044 F       1  <0>        -0.2055
     46 F2          1.7297    3.8921   32.4498 F       1  <0>        -0.2027
     47 H1         -4.9030   -0.4274   30.7912 H       1  <0>         0.0529
     48 H2         -3.5678    0.2558   29.8031 H       1  <0>         0.0529
     49 H3         -3.5075    0.3680   31.5950 H       1  <0>         0.0529
     50 H4          7.8248    6.4280   25.4967 H       1  <0>         0.0637
     51 H5          9.6890    2.5717   25.0249 H       1  <0>         0.0637
     52 H6          7.7342    6.7488   23.0320 H       1  <0>         0.0647
     53 H7          9.5867    2.8775   22.5620 H       1  <0>         0.0647
     54 H8          3.2183    3.6298   27.4782 H       1  <0>         0.0637
     55 H9          0.8480    3.4124   28.0440 H       1  <0>         0.0645
     56 H10         0.5866    6.1566   30.3547 H       1  <0>         0.0659
     57 H11        -1.0210    8.0172   29.9290 H       1  <0>         0.0830
     58 H12         4.2995    4.0696   31.6039 H       1  <0>         0.0666
     59 H13        -2.1547    2.2465   30.7048 H       1  <0>         0.0651
     60 H14        -5.3005    6.1779   30.1781 H       1  <0>         0.0666
     61 H15         9.1796    2.0529   29.0146 H       1  <0>         0.0280
     62 H16         8.4216    1.9849   30.2435 H       1  <0>         0.0280
     63 H17         8.9979    4.8437   30.7562 H       1  <0>         0.0280
     64 H18         9.7549    4.9117   29.5289 H       1  <0>         0.0280
     65 H19       -10.1202    1.9668   26.9476 H       1  <0>         0.0837
     66 H20       -10.5023    3.7180   26.8759 H       1  <0>         0.0837
     67 H21       -10.5148    2.1522   30.8109 H       1  <0>         0.0837
     68 H22       -10.2314    0.9197   29.5840 H       1  <0>         0.0837
     69 H23       -12.8135    3.3014   27.6237 H       1  <0>         0.0613
     70 H24       -12.4772    2.1987   26.2657 H       1  <0>         0.0613
     71 H25       -12.7304    1.0858   30.2087 H       1  <0>         0.0613
     72 H26       -12.7267    2.7754   29.6352 H       1  <0>         0.0613
     73 H27        -9.5676    4.3477   31.1086 H       1  <0>         0.0339
     74 H28        -8.6279    2.8469   30.9395 H       1  <0>         0.0339
     75 H29        -9.4438    4.7698   28.7127 H       1  <0>         0.0815
     76 H30        -8.3515    3.3393   28.4962 H       1  <0>         0.0815
     77 H31        -7.4758    5.3529   29.6545 H       1  <0>         0.0567
     78 H32        -7.4035    5.2466   31.4331 H       1  <0>         0.0567
     79 H33         9.5958    4.2506   27.2632 H       1  <0>         0.1548
     80 H34         5.2919    4.3299   28.1422 H       1  <0>         0.1548
     81 H35       -11.0805    3.4795   29.2027 H       1  <0>         0.2035
@<TRIPOS>BOND
     1     1    42    1
     2     2     4   ar
     3     2    22   ar
     4     3     5   ar
     5     3    22   ar
     6     4    23   ar
     7     5    23   ar
     8     6     7   ar
     9     6    24   ar
    10     7    25   ar
    11     8     9   ar
    12     8    26   ar
    13     9    35   ar
    14    10    24   ar
    15    10    31   ar
    16    11    27   ar
    17    11    29   ar
    18    12    28   ar
    19    12    30   ar
    20    13    14    1
    21    13    34    1
    22    14    34    1
    23    15    17    1
    24    15    38    1
    25    16    18    1
    26    16    38    1
    27    17    41    1
    28    18    41    1
    29    19    20    1
    30    19    21    1
    31    20    38    1
    32    21    43    1
    33    22    36    1
    34    23    45    1
    35    24    37    1
    36    25    31   ar
    37    25    44    1
    38    26    27   ar
    39    26    44    1
    40    27    28   ar
    41    28    35   ar
    42    29    30   ar
    43    29    42    1
    44    30    43    1
    45    31    46    1
    46    32    34    1
    47    32    36   am
    48    32    39    2
    49    33    34    1
    50    33    37   am
    51    33    40    2
    52     1    47    1
    53     1    48    1
    54     1    49    1
    55     2    50    1
    56     3    51    1
    57     4    52    1
    58     5    53    1
    59     6    54    1
    60     7    55    1
    61     8    56    1
    62     9    57    1
    63    10    58    1
    64    11    59    1
    65    12    60    1
    66    13    61    1
    67    13    62    1
    68    14    63    1
    69    14    64    1
    70    15    65    1
    71    15    66    1
    72    16    67    1
    73    16    68    1
    74    17    69    1
    75    17    70    1
    76    18    71    1
    77    18    72    1
    78    19    73    1
    79    19    74    1
    80    20    75    1
    81    20    76    1
    82    21    77    1
    83    21    78    1
    84    36    79    1
    85    37    80    1
    86    38    81    1
@<TRIPOS>SUBSTRUCTURE
     1 <0>         1 TEMP              0 ****  ****    0 ROOT

