
##########                                Name:          88Z_1_3LQ8
##########                    Molecular_Weight:             633.672
##########                DOCK_Rotatable_Bonds:                  14
##########                       Formal_Charge:                   1
##########                     HBond_Acceptors:                  12
##########                        HBond_Donors:                   3
##########                         Heavy_Atoms:                  46
##########                            HA_RMSDs:               0.558
##########                            HA_RMSDh:               0.558
##########                            HA_RMSDm:               0.551
##########                          Grid_Score:         -126.146843
##########                     Grid_vdw_energy:          -82.810005
##########                      Grid_es_energy:          -43.336838
##########           Internal_energy_repulsive:           24.252525

@<TRIPOS>MOLECULE
88Z_1_3LQ8
 81 86 1 0 0
SMALL
USER_CHARGES


@<TRIPOS>ATOM
      1 C1         -4.3645    0.4524   30.3909 C.3     1  <0>         0.0431
      2 C2          8.4016    5.3841   24.8723 C.ar    1  <0>        -0.0378
      3 C3          9.3725    3.1502   24.7133 C.ar    1  <0>        -0.0378
      4 C4          8.4186    5.5537   23.4815 C.ar    1  <0>        -0.0247
      5 C5          9.3885    3.3088   23.3217 C.ar    1  <0>        -0.0247
      6 C6          2.9389    3.3609   28.4129 C.ar    1  <0>        -0.0378
      7 C7          1.5956    3.2317   28.6862 C.ar    1  <0>        -0.0266
      8 C8         -0.4267    5.8608   30.2635 C.ar    1  <0>        -0.0124
      9 C9         -1.2931    6.9786   30.1393 C.ar    1  <0>         0.0307
     10 C10         3.4491    4.0124   30.6946 C.ar    1  <0>        -0.0026
     11 C11        -2.9110    3.0825   30.3224 C.ar    1  <0>        -0.0175
     12 C12        -4.5989    5.4401   30.1832 C.ar    1  <0>        -0.0031
     13 C13         8.5206    2.7107   29.6538 C.3     1  <0>        -0.0292
     14 C14         8.8609    4.1789   29.8972 C.3     1  <0>        -0.0292
     15 C15       -10.3304    1.6357   27.7721 C.3     1  <0>        -0.0078
     16 C16       -11.3608    2.9352   29.6875 C.3     1  <0>        -0.0078
     17 C17       -11.7402    1.4176   27.2168 C.3     1  <0>         0.0878
     18 C18       -12.6474    2.7426   28.8675 C.3     1  <0>         0.0878
     19 C19        -8.8287    4.1337   30.1088 C.3     1  <0>         0.0114
     20 C20        -9.0602    3.4748   28.7695 C.3     1  <0>        -0.0296
     21 C21        -7.4923    4.8626   29.9654 C.3     1  <0>         0.0591
     22 C22         8.8380    4.1975   25.4939 C.ar    1  <0>         0.0336
     23 C23         8.9425    4.4856   22.7130 C.ar    1  <0>         0.1235
     24 C24         3.8625    3.7648   29.3907 C.ar    1  <0>         0.0363
     25 C25         1.1395    3.4934   29.9628 C.ar    1  <0>         0.1183
     26 C26        -0.9414    4.5483   30.3073 C.ar    1  <0>         0.0939
     27 C27        -2.3778    4.3564   30.2749 C.ar    1  <0>         0.0335
     28 C28        -3.2166    5.5826   30.1955 C.ar    1  <0>         0.0760
     29 C29        -4.3065    2.9445   30.2875 C.ar    1  <0>         0.1064
     30 C30        -5.1480    4.1510   30.2164 C.ar    1  <0>         0.1081
     31 C31         2.0920    3.8995   31.0019 C.ar    1  <0>         0.1554
     32 C32         7.6308    4.0277   27.5291 C.2     1  <0>         0.2323
     33 C33         6.2763    3.7910   29.7693 C.2     1  <0>         0.2323
     34 C34         7.6177    3.8097   29.0592 C.3     1  <0>         0.1233
     35 N1         -2.6305    6.7952   30.1488 N.ar    1  <0>        -0.2547
     36 N2          8.7987    4.0466   26.8584 N.am    1  <0>        -0.2846
     37 N3          5.1576    3.8762   29.0190 N.am    1  <0>        -0.2846
     38 N4        -10.3435    2.8149   28.6466 N.4     1  <0>         0.2385
     39 O1          6.6509    4.5722   27.0059 O.2     1  <0>        -0.2743
     40 O2          6.2840    3.6737   30.9713 O.2     1  <0>        -0.2743
     41 O3        -12.5985    1.4059   28.3479 O.3     1  <0>        -0.3693
     42 O4         -4.9892    1.7342   30.2943 O.3     1  <0>        -0.3453
     43 O5         -6.4770    3.8787   30.1945 O.3     1  <0>        -0.3419
     44 O6         -0.1693    3.4020   30.3425 O.3     1  <0>        -0.3057
     45 F1          9.0163    4.5852   21.3680 F       1  <0>        -0.2055
     46 F2          1.5647    4.1477   32.2126 F       1  <0>        -0.2027
     47 H1         -5.1341   -0.3334   30.3737 H       1  <0>         0.0529
     48 H2         -3.6798    0.3134   29.5413 H       1  <0>         0.0529
     49 H3         -3.7985    0.3905   31.3321 H       1  <0>         0.0529
     50 H4          8.0407    6.1928   25.4905 H       1  <0>         0.0637
     51 H5          9.7576    2.2531   25.1752 H       1  <0>         0.0637
     52 H6          8.0497    6.4564   23.0173 H       1  <0>         0.0647
     53 H7          9.7543    2.5022   22.7038 H       1  <0>         0.0647
     54 H8          3.2932    3.1451   27.4158 H       1  <0>         0.0637
     55 H9          0.9071    2.9291   27.9112 H       1  <0>         0.0645
     56 H10         0.6401    6.0174   30.3252 H       1  <0>         0.0659
     57 H11        -0.8834    7.9727   30.0375 H       1  <0>         0.0830
     58 H12         4.1644    4.2869   31.4558 H       1  <0>         0.0666
     59 H13        -2.2700    2.2155   30.3848 H       1  <0>         0.0651
     60 H14        -5.2398    6.3087   30.1486 H       1  <0>         0.0666
     61 H15         9.0974    1.9134   29.1622 H       1  <0>         0.0280
     62 H16         8.2921    1.9011   30.3625 H       1  <0>         0.0280
     63 H17         8.9521    4.7490   30.8335 H       1  <0>         0.0280
     64 H18         9.7563    4.7613   29.6348 H       1  <0>         0.0280
     65 H19       -10.0174    0.7515   28.3467 H       1  <0>         0.0837
     66 H20        -9.6262    1.7971   26.9426 H       1  <0>         0.0837
     67 H21       -11.3290    3.9116   30.1931 H       1  <0>         0.0837
     68 H22       -11.2475    2.1740   30.4735 H       1  <0>         0.0837
     69 H23       -12.0168    2.2271   26.5253 H       1  <0>         0.0613
     70 H24       -11.8014    0.4648   26.6705 H       1  <0>         0.0613
     71 H25       -13.5343    2.8768   29.5042 H       1  <0>         0.0613
     72 H26       -12.6951    3.4739   28.0472 H       1  <0>         0.0613
     73 H27        -9.6387    4.8390   30.3462 H       1  <0>         0.0339
     74 H28        -8.7850    3.3853   30.9138 H       1  <0>         0.0339
     75 H29        -9.0045    4.2538   27.9948 H       1  <0>         0.0815
     76 H30        -8.2750    2.7183   28.6242 H       1  <0>         0.0815
     77 H31        -7.3929    5.2945   28.9587 H       1  <0>         0.0567
     78 H32        -7.4148    5.6775   30.7001 H       1  <0>         0.0567
     79 H33         9.6554    3.9487   27.3649 H       1  <0>         0.1548
     80 H34         5.3089    4.0467   28.0453 H       1  <0>         0.1548
     81 H35       -10.8550    3.4984   28.1260 H       1  <0>         0.2035
@<TRIPOS>BOND
     1     1    42    1
     2     2     4   ar
     3     2    22   ar
     4     3     5   ar
     5     3    22   ar
     6     4    23   ar
     7     5    23   ar
     8     6     7   ar
     9     6    24   ar
    10     7    25   ar
    11     8     9   ar
    12     8    26   ar
    13     9    35   ar
    14    10    24   ar
    15    10    31   ar
    16    11    27   ar
    17    11    29   ar
    18    12    28   ar
    19    12    30   ar
    20    13    14    1
    21    13    34    1
    22    14    34    1
    23    15    17    1
    24    15    38    1
    25    16    18    1
    26    16    38    1
    27    17    41    1
    28    18    41    1
    29    19    20    1
    30    19    21    1
    31    20    38    1
    32    21    43    1
    33    22    36    1
    34    23    45    1
    35    24    37    1
    36    25    31   ar
    37    25    44    1
    38    26    27   ar
    39    26    44    1
    40    27    28   ar
    41    28    35   ar
    42    29    30   ar
    43    29    42    1
    44    30    43    1
    45    31    46    1
    46    32    34    1
    47    32    36   am
    48    32    39    2
    49    33    34    1
    50    33    37   am
    51    33    40    2
    52     1    47    1
    53     1    48    1
    54     1    49    1
    55     2    50    1
    56     3    51    1
    57     4    52    1
    58     5    53    1
    59     6    54    1
    60     7    55    1
    61     8    56    1
    62     9    57    1
    63    10    58    1
    64    11    59    1
    65    12    60    1
    66    13    61    1
    67    13    62    1
    68    14    63    1
    69    14    64    1
    70    15    65    1
    71    15    66    1
    72    16    67    1
    73    16    68    1
    74    17    69    1
    75    17    70    1
    76    18    71    1
    77    18    72    1
    78    19    73    1
    79    19    74    1
    80    20    75    1
    81    20    76    1
    82    21    77    1
    83    21    78    1
    84    36    79    1
    85    37    80    1
    86    38    81    1
@<TRIPOS>SUBSTRUCTURE
     1 <0>         1 TEMP              0 ****  ****    0 ROOT

