
##########                                Name:          88Z_1_3LQ8
##########                    Molecular_Weight:             633.672
##########                DOCK_Rotatable_Bonds:                  14
##########                       Formal_Charge:                   1
##########                     HBond_Acceptors:                  12
##########                        HBond_Donors:                   3
##########                         Heavy_Atoms:                  46
##########                            HA_RMSDs:               0.483
##########                            HA_RMSDh:               0.483
##########                            HA_RMSDm:               0.483
##########                          Grid_Score:         -107.861076
##########                     Grid_vdw_energy:          -66.310524
##########                      Grid_es_energy:          -41.550552
##########           Internal_energy_repulsive:           23.001049

@<TRIPOS>MOLECULE
88Z_1_3LQ8
 81 86 1 0 0
SMALL
USER_CHARGES


@<TRIPOS>ATOM
      1 C1         -3.8331    0.3489   31.1291 C.3     1  <0>         0.0431
      2 C2          8.3738    5.5794   24.8608 C.ar    1  <0>        -0.0378
      3 C3          9.0708    3.2441   24.7238 C.ar    1  <0>        -0.0378
      4 C4          8.2917    5.6971   23.4669 C.ar    1  <0>        -0.0247
      5 C5          8.9863    3.3510   23.3297 C.ar    1  <0>        -0.0247
      6 C6          3.0517    3.6446   28.8330 C.ar    1  <0>        -0.0378
      7 C7          1.7307    3.5187   29.2004 C.ar    1  <0>        -0.0266
      8 C8         -0.3687    6.0411   30.4909 C.ar    1  <0>        -0.0124
      9 C9         -1.3204    7.0404   30.1572 C.ar    1  <0>         0.0307
     10 C10         3.7322    4.2366   31.0863 C.ar    1  <0>        -0.0026
     11 C11        -2.6088    3.0952   30.9359 C.ar    1  <0>        -0.0175
     12 C12        -4.4826    5.2354   30.3572 C.ar    1  <0>        -0.0031
     13 C13         8.7430    2.9965   29.7188 C.3     1  <0>        -0.0292
     14 C14         9.0575    4.4817   29.8800 C.3     1  <0>        -0.0292
     15 C15       -10.3484    2.9334   27.2766 C.3     1  <0>        -0.0078
     16 C16       -10.5110    1.7652   29.5188 C.3     1  <0>        -0.0078
     17 C17       -11.8091    2.5542   27.0202 C.3     1  <0>         0.0878
     18 C18       -11.9935    1.6456   29.1282 C.3     1  <0>         0.0878
     19 C19        -8.5869    3.5718   30.5809 C.3     1  <0>         0.0114
     20 C20        -9.0168    3.7793   29.1480 C.3     1  <0>        -0.0296
     21 C21        -7.3278    4.4240   30.7435 C.3     1  <0>         0.0591
     22 C22         8.7254    4.3728   25.4974 C.ar    1  <0>         0.0336
     23 C23         8.6253    4.5494   22.7071 C.ar    1  <0>         0.1235
     24 C24         4.0475    4.0177   29.7502 C.ar    1  <0>         0.0363
     25 C25         1.3709    3.7526   30.5126 C.ar    1  <0>         0.1183
     26 C26        -0.7717    4.7120   30.7365 C.ar    1  <0>         0.0939
     27 C27        -2.1838    4.3875   30.6936 C.ar    1  <0>         0.0335
     28 C28        -3.1193    5.5031   30.3869 C.ar    1  <0>         0.0760
     29 C29        -3.9846    2.8271   30.8828 C.ar    1  <0>         0.1064
     30 C30        -4.9213    3.9244   30.5875 C.ar    1  <0>         0.1081
     31 C31         2.4002    4.1262   31.4889 C.ar    1  <0>         0.1554
     32 C32         7.6676    4.2026   27.6141 C.2     1  <0>         0.2323
     33 C33         6.4825    4.0224   29.9534 C.2     1  <0>         0.2323
     34 C34         7.7691    4.0468   29.1485 C.3     1  <0>         0.1233
     35 N1         -2.6365    6.7402   30.1571 N.ar    1  <0>        -0.2547
     36 N2          8.7853    4.2753   26.8661 N.am    1  <0>        -0.2846
     37 N3          5.3131    4.1286   29.2878 N.am    1  <0>        -0.2846
     38 N4        -10.1032    2.9205   28.7240 N.4     1  <0>         0.2385
     39 O1          6.6193    4.6560   27.1388 O.2     1  <0>        -0.2743
     40 O2          6.5762    3.8821   31.1493 O.2     1  <0>        -0.2743
     41 O3        -12.0181    1.3401   27.7263 O.3     1  <0>        -0.3693
     42 O4         -4.5619    1.5769   31.0700 O.3     1  <0>        -0.3453
     43 O5         -6.2202    3.5324   30.5714 O.3     1  <0>        -0.3419
     44 O6          0.0924    3.6616   30.9844 O.3     1  <0>        -0.3057
     45 F1          8.5954    4.5927   21.3574 F       1  <0>        -0.2055
     46 F2          1.9645    4.3488   32.7403 F       1  <0>        -0.2027
     47 H1         -4.5324   -0.4859   31.2843 H       1  <0>         0.0529
     48 H2         -3.2885    0.2001   30.1851 H       1  <0>         0.0529
     49 H3         -3.1172    0.3873   31.9634 H       1  <0>         0.0529
     50 H4          8.1597    6.4455   25.4694 H       1  <0>         0.0637
     51 H5          9.3906    2.3252   25.1927 H       1  <0>         0.0637
     52 H6          7.9884    6.6196   22.9942 H       1  <0>         0.0647
     53 H7          9.2056    2.4863   22.7209 H       1  <0>         0.0647
     54 H8          3.3305    3.4505   27.8079 H       1  <0>         0.0637
     55 H9          0.9848    3.2402   28.4706 H       1  <0>         0.0645
     56 H10         0.6771    6.3020   30.5576 H       1  <0>         0.0659
     57 H11        -0.9924    8.0378   29.9041 H       1  <0>         0.0830
     58 H12         4.5035    4.4872   31.7995 H       1  <0>         0.0666
     59 H13        -1.9000    2.3118   31.1604 H       1  <0>         0.0651
     60 H14        -5.1927    6.0249   30.1598 H       1  <0>         0.0666
     61 H15         9.3061    2.1950   29.2183 H       1  <0>         0.0280
     62 H16         8.5885    2.2108   30.4729 H       1  <0>         0.0280
     63 H17         9.1984    5.0916   30.7845 H       1  <0>         0.0280
     64 H18         9.9150    5.0759   29.5315 H       1  <0>         0.0280
     65 H19        -9.6850    2.2089   26.7818 H       1  <0>         0.0837
     66 H20       -10.1506    3.9386   26.8760 H       1  <0>         0.0837
     67 H21       -10.3745    1.9301   30.5978 H       1  <0>         0.0837
     68 H22        -9.9376    0.8607   29.2674 H       1  <0>         0.0837
     69 H23       -12.4863    3.3401   27.3861 H       1  <0>         0.0613
     70 H24       -11.9937    2.4168   25.9445 H       1  <0>         0.0613
     71 H25       -12.4813    0.8465   29.7056 H       1  <0>         0.0613
     72 H26       -12.5221    2.5896   29.3267 H       1  <0>         0.0613
     73 H27        -9.3736    3.8940   31.2789 H       1  <0>         0.0339
     74 H28        -8.3730    2.5111   30.7786 H       1  <0>         0.0339
     75 H29        -9.3488    4.8227   29.0417 H       1  <0>         0.0815
     76 H30        -8.1508    3.5739   28.5016 H       1  <0>         0.0815
     77 H31        -7.3018    5.2242   29.9893 H       1  <0>         0.0567
     78 H32        -7.3003    4.8880   31.7405 H       1  <0>         0.0567
     79 H33         9.6778    4.2578   27.3169 H       1  <0>         0.1548
     80 H34         5.3948    4.3169   28.3091 H       1  <0>         0.1548
     81 H35       -10.8869    3.4087   29.1081 H       1  <0>         0.2035
@<TRIPOS>BOND
     1     1    42    1
     2     2     4   ar
     3     2    22   ar
     4     3     5   ar
     5     3    22   ar
     6     4    23   ar
     7     5    23   ar
     8     6     7   ar
     9     6    24   ar
    10     7    25   ar
    11     8     9   ar
    12     8    26   ar
    13     9    35   ar
    14    10    24   ar
    15    10    31   ar
    16    11    27   ar
    17    11    29   ar
    18    12    28   ar
    19    12    30   ar
    20    13    14    1
    21    13    34    1
    22    14    34    1
    23    15    17    1
    24    15    38    1
    25    16    18    1
    26    16    38    1
    27    17    41    1
    28    18    41    1
    29    19    20    1
    30    19    21    1
    31    20    38    1
    32    21    43    1
    33    22    36    1
    34    23    45    1
    35    24    37    1
    36    25    31   ar
    37    25    44    1
    38    26    27   ar
    39    26    44    1
    40    27    28   ar
    41    28    35   ar
    42    29    30   ar
    43    29    42    1
    44    30    43    1
    45    31    46    1
    46    32    34    1
    47    32    36   am
    48    32    39    2
    49    33    34    1
    50    33    37   am
    51    33    40    2
    52     1    47    1
    53     1    48    1
    54     1    49    1
    55     2    50    1
    56     3    51    1
    57     4    52    1
    58     5    53    1
    59     6    54    1
    60     7    55    1
    61     8    56    1
    62     9    57    1
    63    10    58    1
    64    11    59    1
    65    12    60    1
    66    13    61    1
    67    13    62    1
    68    14    63    1
    69    14    64    1
    70    15    65    1
    71    15    66    1
    72    16    67    1
    73    16    68    1
    74    17    69    1
    75    17    70    1
    76    18    71    1
    77    18    72    1
    78    19    73    1
    79    19    74    1
    80    20    75    1
    81    20    76    1
    82    21    77    1
    83    21    78    1
    84    36    79    1
    85    37    80    1
    86    38    81    1
@<TRIPOS>SUBSTRUCTURE
     1 <0>         1 TEMP              0 ****  ****    0 ROOT

