
##########                                Name:          88Z_1_3LQ8
##########                    Molecular_Weight:             633.672
##########                DOCK_Rotatable_Bonds:                  14
##########                       Formal_Charge:                   1
##########                     HBond_Acceptors:                  12
##########                        HBond_Donors:                   3
##########                         Heavy_Atoms:                  46
##########                            HA_RMSDs:               0.578
##########                            HA_RMSDh:               0.578
##########                            HA_RMSDm:               0.578
##########                          Grid_Score:         -121.723801
##########                     Grid_vdw_energy:          -79.480576
##########                      Grid_es_energy:          -42.243229
##########           Internal_energy_repulsive:           24.319895

@<TRIPOS>MOLECULE
88Z_1_3LQ8
 81 86 1 0 0
SMALL
USER_CHARGES


@<TRIPOS>ATOM
      1 C1         -4.0801    0.4680   30.6848 C.3     1  <0>         0.0431
      2 C2          8.3418    5.3280   24.8555 C.ar    1  <0>        -0.0378
      3 C3          9.4147    3.1401   24.7138 C.ar    1  <0>        -0.0378
      4 C4          8.3101    5.4673   23.4615 C.ar    1  <0>        -0.0247
      5 C5          9.3826    3.2684   23.3194 C.ar    1  <0>        -0.0247
      6 C6          3.0514    3.8045   28.5933 C.ar    1  <0>        -0.0378
      7 C7          1.7110    3.6857   28.8848 C.ar    1  <0>        -0.0266
      8 C8         -0.3488    6.0127   30.3182 C.ar    1  <0>        -0.0124
      9 C9         -1.2586    7.0815   30.1042 C.ar    1  <0>         0.0307
     10 C10         3.6600    3.9228   30.9399 C.ar    1  <0>        -0.0026
     11 C11        -2.7227    3.1561   30.6327 C.ar    1  <0>        -0.0175
     12 C12        -4.5017    5.4261   30.3027 C.ar    1  <0>        -0.0031
     13 C13         8.7780    2.8232   29.6908 C.3     1  <0>        -0.0292
     14 C14         8.9750    4.3230   29.8969 C.3     1  <0>        -0.0292
     15 C15        -9.8460    2.0547   27.4544 C.3     1  <0>        -0.0078
     16 C16       -10.1338    1.5997   29.9302 C.3     1  <0>        -0.0078
     17 C17       -11.0932    1.2055   27.1961 C.3     1  <0>         0.0878
     18 C18       -11.4404    0.9411   29.4572 C.3     1  <0>         0.0878
     19 C19        -8.6788    3.9614   30.4832 C.3     1  <0>         0.0114
     20 C20        -9.1400    3.7630   29.0587 C.3     1  <0>        -0.0296
     21 C21        -7.3785    4.7579   30.3708 C.3     1  <0>         0.0591
     22 C22         8.8531    4.1778   25.4882 C.ar    1  <0>         0.0336
     23 C23         8.8626    4.4086   22.7001 C.ar    1  <0>         0.1235
     24 C24         4.0229    3.9421   29.5981 C.ar    1  <0>         0.0363
     25 C25         1.3055    3.6882   30.2045 C.ar    1  <0>         0.1183
     26 C26        -0.8117    4.6901   30.4782 C.ar    1  <0>         0.0939
     27 C27        -2.2396    4.4408   30.4721 C.ar    1  <0>         0.0335
     28 C28        -3.1260    5.6224   30.2934 C.ar    1  <0>         0.0760
     29 C29        -4.1118    2.9619   30.6193 C.ar    1  <0>         0.1064
     30 C30        -4.9999    4.1244   30.4504 C.ar    1  <0>         0.1081
     31 C31         2.3077    3.8133   31.2686 C.ar    1  <0>         0.1554
     32 C32         7.7152    3.9980   27.5621 C.2     1  <0>         0.2323
     33 C33         6.4400    3.6773   29.8381 C.2     1  <0>         0.2323
     34 C34         7.7571    3.8136   29.0962 C.3     1  <0>         0.1233
     35 N1         -2.5878    6.8481   30.1385 N.ar    1  <0>        -0.2547
     36 N2          8.8608    4.0556   26.8561 N.am    1  <0>        -0.2846
     37 N3          5.3114    4.0671   29.2087 N.am    1  <0>        -0.2846
     38 N4         -9.8816    2.5384   28.8401 N.4     1  <0>         0.2385
     39 O1          6.6962    4.4853   27.0576 O.2     1  <0>        -0.2743
     40 O2          6.4723    3.2003   30.9472 O.2     1  <0>        -0.2743
     41 O3        -11.1252    0.2459   28.2422 O.3     1  <0>        -0.3693
     42 O4         -4.7467    1.7312   30.7348 O.3     1  <0>        -0.3453
     43 O5         -6.3174    3.8002   30.4610 O.3     1  <0>        -0.3419
     44 O6          0.0046    3.5817   30.6066 O.3     1  <0>        -0.3057
     45 F1          8.8924    4.4818   21.3517 F       1  <0>        -0.2055
     46 F2          1.8286    3.8203   32.5239 F       1  <0>        -0.2027
     47 H1         -4.8165   -0.3407   30.8015 H       1  <0>         0.0529
     48 H2         -3.5690    0.3613   29.7166 H       1  <0>         0.0529
     49 H3         -3.3413    0.4111   31.4978 H       1  <0>         0.0529
     50 H4          7.9602    6.1321   25.4673 H       1  <0>         0.0637
     51 H5          9.8562    2.2730   25.1825 H       1  <0>         0.0637
     52 H6          7.8845    6.3408   22.9900 H       1  <0>         0.0647
     53 H7          9.7690    2.4666   22.7077 H       1  <0>         0.0647
     54 H8          3.3654    3.7916   27.5601 H       1  <0>         0.0637
     55 H9          0.9854    3.5917   28.0904 H       1  <0>         0.0645
     56 H10         0.7113    6.2151   30.3590 H       1  <0>         0.0659
     57 H11        -0.8884    8.0781   29.9145 H       1  <0>         0.0830
     58 H12         4.4103    3.9912   31.7137 H       1  <0>         0.0666
     59 H13        -2.0481    2.3231   30.7650 H       1  <0>         0.0651
     60 H14        -5.1761    6.2631   30.1979 H       1  <0>         0.0666
     61 H15         9.4207    2.0766   29.2015 H       1  <0>         0.0280
     62 H16         8.6469    2.0108   30.4206 H       1  <0>         0.0280
     63 H17         9.0291    4.9199   30.8193 H       1  <0>         0.0280
     64 H18         9.8019    4.9857   29.6018 H       1  <0>         0.0280
     65 H19        -8.9437    1.4454   27.2975 H       1  <0>         0.0837
     66 H20        -9.8305    2.9104   26.7633 H       1  <0>         0.0837
     67 H21       -10.2473    2.1056   30.9003 H       1  <0>         0.0837
     68 H22        -9.3184    0.8715   30.0525 H       1  <0>         0.0837
     69 H23       -11.9995    1.8288   27.2103 H       1  <0>         0.0613
     70 H24       -11.0328    0.7116   26.2151 H       1  <0>         0.0613
     71 H25       -11.8157    0.2396   30.2168 H       1  <0>         0.0613
     72 H26       -12.2130    1.7031   29.2765 H       1  <0>         0.0613
     73 H27        -9.4299    4.5136   31.0672 H       1  <0>         0.0339
     74 H28        -8.5074    2.9952   30.9802 H       1  <0>         0.0339
     75 H29        -9.7942    4.6068   28.7939 H       1  <0>         0.0815
     76 H30        -8.2486    3.7387   28.4146 H       1  <0>         0.0815
     77 H31        -7.3350    5.2949   29.4118 H       1  <0>         0.0567
     78 H32        -7.3046    5.4955   31.1835 H       1  <0>         0.0567
     79 H33         9.7356    4.0083   27.3383 H       1  <0>         0.1548
     80 H34         5.4486    4.5138   28.3246 H       1  <0>         0.1548
     81 H35       -10.8191    2.8648   28.9600 H       1  <0>         0.2035
@<TRIPOS>BOND
     1     1    42    1
     2     2     4   ar
     3     2    22   ar
     4     3     5   ar
     5     3    22   ar
     6     4    23   ar
     7     5    23   ar
     8     6     7   ar
     9     6    24   ar
    10     7    25   ar
    11     8     9   ar
    12     8    26   ar
    13     9    35   ar
    14    10    24   ar
    15    10    31   ar
    16    11    27   ar
    17    11    29   ar
    18    12    28   ar
    19    12    30   ar
    20    13    14    1
    21    13    34    1
    22    14    34    1
    23    15    17    1
    24    15    38    1
    25    16    18    1
    26    16    38    1
    27    17    41    1
    28    18    41    1
    29    19    20    1
    30    19    21    1
    31    20    38    1
    32    21    43    1
    33    22    36    1
    34    23    45    1
    35    24    37    1
    36    25    31   ar
    37    25    44    1
    38    26    27   ar
    39    26    44    1
    40    27    28   ar
    41    28    35   ar
    42    29    30   ar
    43    29    42    1
    44    30    43    1
    45    31    46    1
    46    32    34    1
    47    32    36   am
    48    32    39    2
    49    33    34    1
    50    33    37   am
    51    33    40    2
    52     1    47    1
    53     1    48    1
    54     1    49    1
    55     2    50    1
    56     3    51    1
    57     4    52    1
    58     5    53    1
    59     6    54    1
    60     7    55    1
    61     8    56    1
    62     9    57    1
    63    10    58    1
    64    11    59    1
    65    12    60    1
    66    13    61    1
    67    13    62    1
    68    14    63    1
    69    14    64    1
    70    15    65    1
    71    15    66    1
    72    16    67    1
    73    16    68    1
    74    17    69    1
    75    17    70    1
    76    18    71    1
    77    18    72    1
    78    19    73    1
    79    19    74    1
    80    20    75    1
    81    20    76    1
    82    21    77    1
    83    21    78    1
    84    36    79    1
    85    37    80    1
    86    38    81    1
@<TRIPOS>SUBSTRUCTURE
     1 <0>         1 TEMP              0 ****  ****    0 ROOT

