
##########                                Name:          88Z_1_3LQ8
##########                    Molecular_Weight:             633.672
##########                DOCK_Rotatable_Bonds:                  14
##########                       Formal_Charge:                   1
##########                     HBond_Acceptors:                  12
##########                        HBond_Donors:                   3
##########                         Heavy_Atoms:                  46
##########                            HA_RMSDs:               0.394
##########                            HA_RMSDh:               0.394
##########                            HA_RMSDm:               0.394
##########                          Grid_Score:         -124.708298
##########                     Grid_vdw_energy:          -84.263115
##########                      Grid_es_energy:          -40.445187
##########           Internal_energy_repulsive:           24.715982

@<TRIPOS>MOLECULE
88Z_1_3LQ8
 81 86 1 0 0
SMALL
USER_CHARGES


@<TRIPOS>ATOM
      1 C1         -4.4805    0.5904   30.7751 C.3     1  <0>         0.0431
      2 C2          8.0495    5.4806   25.0405 C.ar    1  <0>        -0.0378
      3 C3          9.2203    3.3420   24.9225 C.ar    1  <0>        -0.0378
      4 C4          8.0409    5.6188   23.6461 C.ar    1  <0>        -0.0247
      5 C5          9.2117    3.4692   23.5275 C.ar    1  <0>        -0.0247
      6 C6          2.7660    3.6358   28.6873 C.ar    1  <0>        -0.0378
      7 C7          1.4235    3.5152   28.9683 C.ar    1  <0>        -0.0266
      8 C8         -0.5957    6.0317   30.5180 C.ar    1  <0>        -0.0124
      9 C9         -1.4732    7.1379   30.3693 C.ar    1  <0>         0.0307
     10 C10         3.3221    4.0657   31.0104 C.ar    1  <0>        -0.0026
     11 C11        -3.0537    3.2331   30.6627 C.ar    1  <0>        -0.0175
     12 C12        -4.7642    5.5707   30.4711 C.ar    1  <0>        -0.0031
     13 C13         8.4368    2.8114   29.8669 C.3     1  <0>        -0.0292
     14 C14         8.6856    4.3040   30.0690 C.3     1  <0>        -0.0292
     15 C15       -11.1122    2.9564   27.6552 C.3     1  <0>        -0.0078
     16 C16       -10.5313    1.8184   29.8430 C.3     1  <0>        -0.0078
     17 C17       -12.5347    2.4086   27.7963 C.3     1  <0>         0.0878
     18 C18       -12.0404    1.5236   29.8641 C.3     1  <0>         0.0878
     19 C19        -8.9830    4.2275   30.5311 C.3     1  <0>         0.0114
     20 C20        -9.4328    3.9824   29.1103 C.3     1  <0>        -0.0296
     21 C21        -7.6578    4.9793   30.4025 C.3     1  <0>         0.0591
     22 C22         8.5975    4.3536   25.6843 C.ar    1  <0>         0.0336
     23 C23         8.6552    4.5858   22.8969 C.ar    1  <0>         0.1235
     24 C24         3.7122    3.9269   29.6834 C.ar    1  <0>         0.0363
     25 C25         0.9907    3.6716   30.2700 C.ar    1  <0>         0.1183
     26 C26        -1.0979    4.7162   30.5987 C.ar    1  <0>         0.0939
     27 C27        -2.5326    4.5102   30.5791 C.ar    1  <0>         0.0335
     28 C28        -3.3833    5.7262   30.4723 C.ar    1  <0>         0.0760
     29 C29        -4.4480    3.0815   30.6389 C.ar    1  <0>         0.1064
     30 C30        -5.3010    4.2779   30.5409 C.ar    1  <0>         0.1081
     31 C31         1.9667    3.9587   31.3269 C.ar    1  <0>         0.1554
     32 C32         7.4352    4.0146   27.7245 C.2     1  <0>         0.2323
     33 C33         6.1297    3.7491   29.9905 C.2     1  <0>         0.2323
     34 C34         7.4572    3.8352   29.2596 C.3     1  <0>         0.1233
     35 N1         -2.8087    6.9425   30.3907 N.ar    1  <0>        -0.2547
     36 N2          8.5820    4.2313   27.0522 N.am    1  <0>        -0.2846
     37 N3          5.0048    4.0398   29.3036 N.am    1  <0>        -0.2846
     38 N4        -10.4873    2.9979   28.9830 N.4     1  <0>         0.2385
     39 O1          6.3738    4.3572   27.1893 O.2     1  <0>        -0.2743
     40 O2          6.1518    3.3977   31.1457 O.2     1  <0>        -0.2743
     41 O3        -12.4057    1.1918   28.5166 O.3     1  <0>        -0.3693
     42 O4         -5.1193    1.8655   30.6810 O.3     1  <0>        -0.3453
     43 O5         -6.6276    3.9929   30.5332 O.3     1  <0>        -0.3419
     44 O6         -0.3150    3.5783   30.6597 O.3     1  <0>        -0.3057
     45 F1          8.7099    4.6607   21.5494 F       1  <0>        -0.2055
     46 F2          1.4616    4.1094   32.5628 F       1  <0>        -0.2027
     47 H1         -5.2432   -0.2021   30.7904 H       1  <0>         0.0529
     48 H2         -3.8199    0.4465   29.9075 H       1  <0>         0.0529
     49 H3         -3.8866    0.5455   31.6999 H       1  <0>         0.0529
     50 H4          7.6202    6.2668   25.6438 H       1  <0>         0.0637
     51 H5          9.6896    2.4949   25.4007 H       1  <0>         0.0637
     52 H6          7.5873    6.4729   23.1654 H       1  <0>         0.0647
     53 H7          9.6457    2.6855   22.9245 H       1  <0>         0.0647
     54 H8          3.1017    3.5023   27.6696 H       1  <0>         0.0637
     55 H9          0.7174    3.3009   28.1797 H       1  <0>         0.0645
     56 H10         0.4698    6.1997   30.5699 H       1  <0>         0.0659
     57 H11        -1.0734    8.1327   30.2393 H       1  <0>         0.0830
     58 H12         4.0541    4.2528   31.7822 H       1  <0>         0.0666
     59 H13        -2.4043    2.3741   30.7442 H       1  <0>         0.0651
     60 H14        -5.4134    6.4321   30.4172 H       1  <0>         0.0666
     61 H15         9.0566    2.0402   29.3861 H       1  <0>         0.0280
     62 H16         8.2704    2.0071   30.5986 H       1  <0>         0.0280
     63 H17         8.7531    4.9023   30.9895 H       1  <0>         0.0280
     64 H18         9.5382    4.9354   29.7786 H       1  <0>         0.0280
     65 H19       -10.5277    2.3031   26.9907 H       1  <0>         0.0837
     66 H20       -11.1459    3.9701   27.2294 H       1  <0>         0.0837
     67 H21       -10.1297    2.0175   30.8476 H       1  <0>         0.0837
     68 H22        -9.9468    0.9807   29.4347 H       1  <0>         0.0837
     69 H23       -13.1741    3.1188   28.3412 H       1  <0>         0.0613
     70 H24       -12.9846    2.2315   26.8083 H       1  <0>         0.0613
     71 H25       -12.2601    0.6849   30.5410 H       1  <0>         0.0613
     72 H26       -12.6008    2.4048   30.2098 H       1  <0>         0.0613
     73 H27        -9.7238    4.8262   31.0813 H       1  <0>         0.0339
     74 H28        -8.8469    3.2786   31.0707 H       1  <0>         0.0339
     75 H29        -9.8072    4.9340   28.7047 H       1  <0>         0.0815
     76 H30        -8.5646    3.6247   28.5372 H       1  <0>         0.0815
     77 H31        -7.5910    5.4821   29.4264 H       1  <0>         0.0567
     78 H32        -7.5667    5.7413   31.1906 H       1  <0>         0.0567
     79 H33         9.4405    4.3046   27.5599 H       1  <0>         0.1548
     80 H34         5.1485    4.3899   28.3780 H       1  <0>         0.1548
     81 H35       -11.1895    3.4007   29.5701 H       1  <0>         0.2035
@<TRIPOS>BOND
     1     1    42    1
     2     2     4   ar
     3     2    22   ar
     4     3     5   ar
     5     3    22   ar
     6     4    23   ar
     7     5    23   ar
     8     6     7   ar
     9     6    24   ar
    10     7    25   ar
    11     8     9   ar
    12     8    26   ar
    13     9    35   ar
    14    10    24   ar
    15    10    31   ar
    16    11    27   ar
    17    11    29   ar
    18    12    28   ar
    19    12    30   ar
    20    13    14    1
    21    13    34    1
    22    14    34    1
    23    15    17    1
    24    15    38    1
    25    16    18    1
    26    16    38    1
    27    17    41    1
    28    18    41    1
    29    19    20    1
    30    19    21    1
    31    20    38    1
    32    21    43    1
    33    22    36    1
    34    23    45    1
    35    24    37    1
    36    25    31   ar
    37    25    44    1
    38    26    27   ar
    39    26    44    1
    40    27    28   ar
    41    28    35   ar
    42    29    30   ar
    43    29    42    1
    44    30    43    1
    45    31    46    1
    46    32    34    1
    47    32    36   am
    48    32    39    2
    49    33    34    1
    50    33    37   am
    51    33    40    2
    52     1    47    1
    53     1    48    1
    54     1    49    1
    55     2    50    1
    56     3    51    1
    57     4    52    1
    58     5    53    1
    59     6    54    1
    60     7    55    1
    61     8    56    1
    62     9    57    1
    63    10    58    1
    64    11    59    1
    65    12    60    1
    66    13    61    1
    67    13    62    1
    68    14    63    1
    69    14    64    1
    70    15    65    1
    71    15    66    1
    72    16    67    1
    73    16    68    1
    74    17    69    1
    75    17    70    1
    76    18    71    1
    77    18    72    1
    78    19    73    1
    79    19    74    1
    80    20    75    1
    81    20    76    1
    82    21    77    1
    83    21    78    1
    84    36    79    1
    85    37    80    1
    86    38    81    1
@<TRIPOS>SUBSTRUCTURE
     1 <0>         1 TEMP              0 ****  ****    0 ROOT

