
##########                                Name:          88Z_1_3LQ8
##########                    Molecular_Weight:             633.672
##########                DOCK_Rotatable_Bonds:                  14
##########                       Formal_Charge:                   1
##########                     HBond_Acceptors:                  12
##########                        HBond_Donors:                   3
##########                         Heavy_Atoms:                  46
##########                            HA_RMSDs:               0.752
##########                            HA_RMSDh:               0.752
##########                            HA_RMSDm:               0.752
##########                          Grid_Score:         -123.713043
##########                     Grid_vdw_energy:          -80.672989
##########                      Grid_es_energy:          -43.040054
##########           Internal_energy_repulsive:           26.798391

@<TRIPOS>MOLECULE
88Z_1_3LQ8
 81 86 1 0 0
SMALL
USER_CHARGES


@<TRIPOS>ATOM
      1 C1         -4.2896    0.4000   30.4107 C.3     1  <0>         0.0431
      2 C2          8.1929    5.4751   24.8692 C.ar    1  <0>        -0.0378
      3 C3          9.3161    3.3157   24.6858 C.ar    1  <0>        -0.0378
      4 C4          8.1890    5.6565   23.4798 C.ar    1  <0>        -0.0247
      5 C5          9.3120    3.4861   23.2955 C.ar    1  <0>        -0.0247
      6 C6          2.8198    3.6007   28.5392 C.ar    1  <0>        -0.0378
      7 C7          1.4871    3.4913   28.8673 C.ar    1  <0>        -0.0266
      8 C8         -0.4974    5.9127   30.5503 C.ar    1  <0>        -0.0124
      9 C9         -1.3837    7.0075   30.3727 C.ar    1  <0>         0.0307
     10 C10         3.4826    3.8285   30.8629 C.ar    1  <0>        -0.0026
     11 C11        -2.9019    3.0674   30.4180 C.ar    1  <0>        -0.0175
     12 C12        -4.6407    5.3793   30.1759 C.ar    1  <0>        -0.0031
     13 C13         8.4009    2.8439   29.6337 C.3     1  <0>        -0.0292
     14 C14         8.8301    4.2870   29.8864 C.3     1  <0>        -0.0292
     15 C15        -9.6169    0.5555   29.0021 C.3     1  <0>        -0.0078
     16 C16       -10.8698    1.9995   30.6647 C.3     1  <0>        -0.0078
     17 C17       -10.9435   -0.1265   28.6583 C.3     1  <0>         0.0878
     18 C18       -12.0949    1.3057   30.0462 C.3     1  <0>         0.0878
     19 C19        -8.7943    3.9122   30.4754 C.3     1  <0>         0.0114
     20 C20        -8.8266    2.8344   29.4178 C.3     1  <0>        -0.0296
     21 C21        -7.5314    4.7210   30.1776 C.3     1  <0>         0.0591
     22 C22         8.7151    4.3169   25.4783 C.ar    1  <0>         0.0336
     23 C23         8.7811    4.6336   22.6994 C.ar    1  <0>         0.1235
     24 C24         3.8139    3.7873   29.5135 C.ar    1  <0>         0.0363
     25 C25         1.1126    3.5532   30.1947 C.ar    1  <0>         0.1183
     26 C26        -0.9773    4.5864   30.5498 C.ar    1  <0>         0.0939
     27 C27        -2.4021    4.3557   30.4158 C.ar    1  <0>         0.0335
     28 C28        -3.2671    5.5593   30.2857 C.ar    1  <0>         0.0760
     29 C29        -4.2872    2.8918   30.2848 C.ar    1  <0>         0.1064
     30 C30        -5.1547    4.0755   30.1626 C.ar    1  <0>         0.1081
     31 C31         2.1388    3.7300   31.2280 C.ar    1  <0>         0.1554
     32 C32         7.5477    4.2358   27.5420 C.2     1  <0>         0.2323
     33 C33         6.2254    4.0502   29.8062 C.2     1  <0>         0.2323
     34 C34         7.5516    4.0003   29.0696 C.3     1  <0>         0.1233
     35 N1         -2.7129    6.7877   30.2876 N.ar    1  <0>        -0.2547
     36 N2          8.6952    4.1529   26.8417 N.am    1  <0>        -0.2846
     37 N3          5.0925    3.8982   29.0885 N.am    1  <0>        -0.2846
     38 N4         -9.8992    1.8750   29.5806 N.4     1  <0>         0.2385
     39 O1          6.6113    4.8772   27.0499 O.2     1  <0>        -0.2743
     40 O2          6.2591    4.1978   31.0044 O.2     1  <0>        -0.2743
     41 O3        -11.7228   -0.0653   29.8437 O.3     1  <0>        -0.3693
     42 O4         -4.9349    1.6633   30.2364 O.3     1  <0>        -0.3453
     43 O5         -6.4710    3.7673   30.0462 O.3     1  <0>        -0.3419
     44 O6         -0.1781    3.4612   30.6317 O.3     1  <0>        -0.3057
     45 F1          8.8390    4.7488   21.3548 F       1  <0>        -0.2055
     46 F2          1.6892    3.7933   32.4926 F       1  <0>        -0.2027
     47 H1         -5.0325   -0.4067   30.3246 H       1  <0>         0.0529
     48 H2         -3.5186    0.2723   29.6366 H       1  <0>         0.0529
     49 H3         -3.8209    0.3620   31.4051 H       1  <0>         0.0529
     50 H4          7.7805    6.2517   25.4963 H       1  <0>         0.0637
     51 H5          9.7659    2.4440   25.1379 H       1  <0>         0.0637
     52 H6          7.7550    6.5348   23.0254 H       1  <0>         0.0647
     53 H7          9.7292    2.7118   22.6688 H       1  <0>         0.0647
     54 H8          3.1097    3.5413   27.5005 H       1  <0>         0.0637
     55 H9          0.7435    3.3587   28.0953 H       1  <0>         0.0645
     56 H10         0.5577    6.0977   30.6874 H       1  <0>         0.0659
     57 H11        -0.9957    8.0131   30.3060 H       1  <0>         0.0830
     58 H12         4.2505    3.9347   31.6149 H       1  <0>         0.0666
     59 H13        -2.2430    2.2177   30.5197 H       1  <0>         0.0651
     60 H14        -5.3014    6.2303   30.1019 H       1  <0>         0.0666
     61 H15         8.9209    2.0207   29.1219 H       1  <0>         0.0280
     62 H16         8.1397    2.0403   30.3379 H       1  <0>         0.0280
     63 H17         8.9723    4.8395   30.8270 H       1  <0>         0.0280
     64 H18         9.7525    4.8200   29.6126 H       1  <0>         0.0280
     65 H19        -9.0626   -0.0568   29.7286 H       1  <0>         0.0837
     66 H20        -9.0127    0.6721   28.0903 H       1  <0>         0.0837
     67 H21       -11.0713    3.0484   30.9278 H       1  <0>         0.0837
     68 H22       -10.5315    1.5066   31.5881 H       1  <0>         0.0837
     69 H23       -11.4481    0.3957   27.8320 H       1  <0>         0.0613
     70 H24       -10.7782   -1.1704   28.3534 H       1  <0>         0.0613
     71 H25       -12.9597    1.3749   30.7224 H       1  <0>         0.0613
     72 H26       -12.3635    1.7779   29.0897 H       1  <0>         0.0613
     73 H27        -9.6910    4.5467   30.4190 H       1  <0>         0.0339
     74 H28        -8.7529    3.4739   31.4835 H       1  <0>         0.0339
     75 H29        -8.9547    3.3229   28.4404 H       1  <0>         0.0815
     76 H30        -7.8733    2.2874   29.4626 H       1  <0>         0.0815
     77 H31        -7.6510    5.2977   29.2485 H       1  <0>         0.0567
     78 H32        -7.3201    5.4248   30.9962 H       1  <0>         0.0567
     79 H33         9.5510    3.9679   27.3249 H       1  <0>         0.1548
     80 H34         5.2172    3.8623   28.0969 H       1  <0>         0.1548
     81 H35       -10.5909    2.2645   28.9726 H       1  <0>         0.2035
@<TRIPOS>BOND
     1     1    42    1
     2     2     4   ar
     3     2    22   ar
     4     3     5   ar
     5     3    22   ar
     6     4    23   ar
     7     5    23   ar
     8     6     7   ar
     9     6    24   ar
    10     7    25   ar
    11     8     9   ar
    12     8    26   ar
    13     9    35   ar
    14    10    24   ar
    15    10    31   ar
    16    11    27   ar
    17    11    29   ar
    18    12    28   ar
    19    12    30   ar
    20    13    14    1
    21    13    34    1
    22    14    34    1
    23    15    17    1
    24    15    38    1
    25    16    18    1
    26    16    38    1
    27    17    41    1
    28    18    41    1
    29    19    20    1
    30    19    21    1
    31    20    38    1
    32    21    43    1
    33    22    36    1
    34    23    45    1
    35    24    37    1
    36    25    31   ar
    37    25    44    1
    38    26    27   ar
    39    26    44    1
    40    27    28   ar
    41    28    35   ar
    42    29    30   ar
    43    29    42    1
    44    30    43    1
    45    31    46    1
    46    32    34    1
    47    32    36   am
    48    32    39    2
    49    33    34    1
    50    33    37   am
    51    33    40    2
    52     1    47    1
    53     1    48    1
    54     1    49    1
    55     2    50    1
    56     3    51    1
    57     4    52    1
    58     5    53    1
    59     6    54    1
    60     7    55    1
    61     8    56    1
    62     9    57    1
    63    10    58    1
    64    11    59    1
    65    12    60    1
    66    13    61    1
    67    13    62    1
    68    14    63    1
    69    14    64    1
    70    15    65    1
    71    15    66    1
    72    16    67    1
    73    16    68    1
    74    17    69    1
    75    17    70    1
    76    18    71    1
    77    18    72    1
    78    19    73    1
    79    19    74    1
    80    20    75    1
    81    20    76    1
    82    21    77    1
    83    21    78    1
    84    36    79    1
    85    37    80    1
    86    38    81    1
@<TRIPOS>SUBSTRUCTURE
     1 <0>         1 TEMP              0 ****  ****    0 ROOT

