
##########                                Name:          88Z_1_3LQ8
##########                    Molecular_Weight:             633.672
##########                DOCK_Rotatable_Bonds:                  14
##########                       Formal_Charge:                   1
##########                     HBond_Acceptors:                  12
##########                        HBond_Donors:                   3
##########                         Heavy_Atoms:                  46
##########                            HA_RMSDs:               0.594
##########                            HA_RMSDh:               0.594
##########                            HA_RMSDm:               0.567
##########                          Grid_Score:         -127.469467
##########                     Grid_vdw_energy:          -84.378860
##########                      Grid_es_energy:          -43.090603
##########           Internal_energy_repulsive:           20.738581

@<TRIPOS>MOLECULE
88Z_1_3LQ8
 81 86 1 0 0
SMALL
USER_CHARGES


@<TRIPOS>ATOM
      1 C1         -4.1679    0.3163   30.7537 C.3     1  <0>         0.0431
      2 C2          8.1442    5.5505   24.8991 C.ar    1  <0>        -0.0378
      3 C3          9.2113    3.3731   24.6188 C.ar    1  <0>        -0.0378
      4 C4          8.0964    5.7700   23.5159 C.ar    1  <0>        -0.0247
      5 C5          9.1629    3.5816   23.2346 C.ar    1  <0>        -0.0247
      6 C6          2.9265    3.6394   28.6216 C.ar    1  <0>        -0.0378
      7 C7          1.5908    3.4850   28.9182 C.ar    1  <0>        -0.0266
      8 C8         -0.5259    5.9177   30.3066 C.ar    1  <0>        -0.0124
      9 C9         -1.4563    6.9673   30.0868 C.ar    1  <0>         0.0307
     10 C10         3.5004    4.0721   30.9398 C.ar    1  <0>        -0.0026
     11 C11        -2.8469    3.0275   30.6996 C.ar    1  <0>        -0.0175
     12 C12        -4.6682    5.2616   30.3551 C.ar    1  <0>        -0.0031
     13 C13         8.6314    2.8201   29.5843 C.3     1  <0>        -0.0292
     14 C14         8.8330    4.3050   29.8759 C.3     1  <0>        -0.0292
     15 C15        -9.9648    1.8765   27.0425 C.3     1  <0>        -0.0078
     16 C16       -10.8528    1.8514   29.4152 C.3     1  <0>        -0.0078
     17 C17       -11.3969    1.6560   26.5487 C.3     1  <0>         0.0878
     18 C18       -12.2119    1.8051   28.6974 C.3     1  <0>         0.0878
     19 C19        -8.7901    3.6619   30.1868 C.3     1  <0>         0.0114
     20 C20        -8.8419    3.2385   28.7379 C.3     1  <0>        -0.0296
     21 C21        -7.5290    4.5184   30.3039 C.3     1  <0>         0.0591
     22 C22         8.6608    4.3651   25.4583 C.ar    1  <0>         0.0336
     23 C23         8.6379    4.7563   22.6882 C.ar    1  <0>         0.1235
     24 C24         3.8775    3.9489   29.6075 C.ar    1  <0>         0.0363
     25 C25         1.1703    3.6249   30.2258 C.ar    1  <0>         0.1183
     26 C26        -0.9644    4.5903   30.4946 C.ar    1  <0>         0.0939
     27 C27        -2.3878    4.3172   30.5114 C.ar    1  <0>         0.0335
     28 C28        -3.2962    5.4806   30.3246 C.ar    1  <0>         0.0760
     29 C29        -4.2326    2.8100   30.7076 C.ar    1  <0>         0.1064
     30 C30        -5.1424    3.9545   30.5310 C.ar    1  <0>         0.1081
     31 C31         2.1520    3.9307   31.2722 C.ar    1  <0>         0.1554
     32 C32         7.5486    4.1187   27.5393 C.2     1  <0>         0.2323
     33 C33         6.2964    3.6664   29.8058 C.2     1  <0>         0.2323
     34 C34         7.6060    3.8447   29.0594 C.3     1  <0>         0.1233
     35 N1         -2.7808    6.7124   30.1423 N.ar    1  <0>        -0.2547
     36 N2          8.6844    4.1642   26.8167 N.am    1  <0>        -0.2846
     37 N3          5.1622    4.0948   29.2126 N.am    1  <0>        -0.2846
     38 N4        -10.0131    2.4618   28.3881 N.4     1  <0>         0.2385
     39 O1          6.5457    4.6804   27.0822 O.2     1  <0>        -0.2743
     40 O2          6.3393    3.1242   30.8841 O.2     1  <0>        -0.2743
     41 O3        -12.0470    0.9238   27.5771 O.3     1  <0>        -0.3693
     42 O4         -4.8451    1.5710   30.8518 O.3     1  <0>        -0.3453
     43 O5         -6.4539    3.6085   30.5642 O.3     1  <0>        -0.3419
     44 O6         -0.1279    3.4981   30.6308 O.3     1  <0>        -0.3057
     45 F1          8.6519    4.9071   21.3460 F       1  <0>        -0.2055
     46 F2          1.6585    4.0634   32.5148 F       1  <0>        -0.2027
     47 H1         -4.8866   -0.5020   30.9081 H       1  <0>         0.0529
     48 H2         -3.7139    0.2218   29.7563 H       1  <0>         0.0529
     49 H3         -3.3816    0.2632   31.5212 H       1  <0>         0.0529
     50 H4          7.7713    6.3184   25.5607 H       1  <0>         0.0637
     51 H5          9.6566    2.4799   25.0314 H       1  <0>         0.0637
     52 H6          7.6669    6.6697   23.1007 H       1  <0>         0.0647
     53 H7          9.5406    2.8160   22.5731 H       1  <0>         0.0647
     54 H8          3.2528    3.5188   27.5992 H       1  <0>         0.0637
     55 H9          0.8805    3.2572   28.1371 H       1  <0>         0.0645
     56 H10         0.5310    6.1384   30.3302 H       1  <0>         0.0659
     57 H11        -1.1055    7.9667   29.8757 H       1  <0>         0.0830
     58 H12         4.2370    4.2733   31.7036 H       1  <0>         0.0666
     59 H13        -2.1567    2.2083   30.8370 H       1  <0>         0.0651
     60 H14        -5.3579    6.0853   30.2452 H       1  <0>         0.0666
     61 H15         9.2678    2.1027   29.0455 H       1  <0>         0.0280
     62 H16         8.5065    1.9664   30.2666 H       1  <0>         0.0280
     63 H17         8.8975    4.8467   30.8310 H       1  <0>         0.0280
     64 H18         9.6579    4.9830   29.6115 H       1  <0>         0.0280
     65 H19        -9.4319    0.9148   27.0755 H       1  <0>         0.0837
     66 H20        -9.4384    2.5596   26.3597 H       1  <0>         0.0837
     67 H21       -10.8869    2.4494   30.3379 H       1  <0>         0.0837
     68 H22       -10.4986    0.8513   29.7056 H       1  <0>         0.0837
     69 H23       -11.9022    2.6175   26.3751 H       1  <0>         0.0613
     70 H24       -11.4018    1.0914   25.6047 H       1  <0>         0.0613
     71 H25       -12.9928    1.4273   29.3738 H       1  <0>         0.0613
     72 H26       -12.5033    2.8101   28.3580 H       1  <0>         0.0613
     73 H27        -9.6854    4.2392   30.4608 H       1  <0>         0.0339
     74 H28        -8.7354    2.7870   30.8513 H       1  <0>         0.0339
     75 H29        -8.8415    4.1480   28.1192 H       1  <0>         0.0815
     76 H30        -7.9536    2.6227   28.5332 H       1  <0>         0.0815
     77 H31        -7.3496    5.0731   29.3711 H       1  <0>         0.0567
     78 H32        -7.6288    5.2447   31.1240 H       1  <0>         0.0567
     79 H33         9.5635    4.0492   27.2792 H       1  <0>         0.1548
     80 H34         5.2911    4.5932   28.3553 H       1  <0>         0.1548
     81 H35       -10.7003    3.1844   28.3147 H       1  <0>         0.2035
@<TRIPOS>BOND
     1     1    42    1
     2     2     4   ar
     3     2    22   ar
     4     3     5   ar
     5     3    22   ar
     6     4    23   ar
     7     5    23   ar
     8     6     7   ar
     9     6    24   ar
    10     7    25   ar
    11     8     9   ar
    12     8    26   ar
    13     9    35   ar
    14    10    24   ar
    15    10    31   ar
    16    11    27   ar
    17    11    29   ar
    18    12    28   ar
    19    12    30   ar
    20    13    14    1
    21    13    34    1
    22    14    34    1
    23    15    17    1
    24    15    38    1
    25    16    18    1
    26    16    38    1
    27    17    41    1
    28    18    41    1
    29    19    20    1
    30    19    21    1
    31    20    38    1
    32    21    43    1
    33    22    36    1
    34    23    45    1
    35    24    37    1
    36    25    31   ar
    37    25    44    1
    38    26    27   ar
    39    26    44    1
    40    27    28   ar
    41    28    35   ar
    42    29    30   ar
    43    29    42    1
    44    30    43    1
    45    31    46    1
    46    32    34    1
    47    32    36   am
    48    32    39    2
    49    33    34    1
    50    33    37   am
    51    33    40    2
    52     1    47    1
    53     1    48    1
    54     1    49    1
    55     2    50    1
    56     3    51    1
    57     4    52    1
    58     5    53    1
    59     6    54    1
    60     7    55    1
    61     8    56    1
    62     9    57    1
    63    10    58    1
    64    11    59    1
    65    12    60    1
    66    13    61    1
    67    13    62    1
    68    14    63    1
    69    14    64    1
    70    15    65    1
    71    15    66    1
    72    16    67    1
    73    16    68    1
    74    17    69    1
    75    17    70    1
    76    18    71    1
    77    18    72    1
    78    19    73    1
    79    19    74    1
    80    20    75    1
    81    20    76    1
    82    21    77    1
    83    21    78    1
    84    36    79    1
    85    37    80    1
    86    38    81    1
@<TRIPOS>SUBSTRUCTURE
     1 <0>         1 TEMP              0 ****  ****    0 ROOT

