
##########                                Name:        46C_901_2ZDT
##########                    Molecular_Weight:             444.894
##########                DOCK_Rotatable_Bonds:                   6
##########                       Formal_Charge:             -0.9998
##########                     HBond_Acceptors:                   6
##########                        HBond_Donors:                   0
##########                         Heavy_Atoms:                  32
##########                            HA_RMSDs:               0.341
##########                            HA_RMSDh:               0.341
##########                            HA_RMSDm:               0.341
##########                          Grid_Score:          -14.662903
##########                     Grid_vdw_energy:          -53.129463
##########                      Grid_es_energy:           38.466560
##########           Internal_energy_repulsive:           41.727901

@<TRIPOS>MOLECULE
46C_901_2ZDT
 51 54 1 0 0
SMALL
USER_CHARGES


@<TRIPOS>ATOM
      1 C1         50.7234    8.3103   29.1338 C.3     1  <0>        -0.0582
      2 C2         49.1389   12.7296   30.5764 C.ar    1  <0>        -0.0617
      3 C3         49.5277   11.8840   31.7228 C.ar    1  <0>        -0.0612
      4 C4         47.9879   12.3535   29.7308 C.ar    1  <0>        -0.0612
      5 C5         48.7655   10.6672   32.0307 C.ar    1  <0>        -0.0540
      6 C6         47.2173   11.1351   30.0270 C.ar    1  <0>        -0.0540
      7 C7         47.6183    4.0308   32.2007 C.ar    1  <0>        -0.0564
      8 C8         49.1387    4.7482   30.2558 C.ar    1  <0>        -0.0564
      9 C9         48.7387    3.3347   32.8184 C.ar    1  <0>        -0.0526
     10 C10        50.2704    4.0412   30.8756 C.ar    1  <0>        -0.0526
     11 C11        43.4316    9.1636   34.2005 C.ar    1  <0>        -0.0426
     12 C12        43.7833    7.9327   33.5063 C.ar    1  <0>        -0.0477
     13 C13        45.4156   10.3882   33.1056 C.ar    1  <0>        -0.0349
     14 C14        49.7121    8.3656   30.2600 C.3     1  <0>         0.0089
     15 C15        46.6944    5.4657   30.3299 C.3     1  <0>         0.0452
     16 C16        47.8413    4.7230   30.9386 C.ar    1  <0>        -0.0297
     17 C17        47.6274   10.3189   31.1759 C.ar    1  <0>        -0.0154
     18 C18        50.0395    3.3476   32.1506 C.ar    1  <0>        -0.0027
     19 C19        44.2482   10.3665   33.9901 C.ar    1  <0>         0.0416
     20 C20        44.9505    7.9684   32.6181 C.ar    1  <0>         0.0451
     21 C21        45.7468    9.1611   32.4205 C.ar    1  <0>        -0.0019
     22 C22        46.8605    9.1219   31.4832 C.2     1  <0>         0.0149
     23 C23        47.1748    7.8813   30.8216 C.2     1  <0>         0.0878
     24 C24        45.3096    6.7405   31.8294 C.2     1  <0>         0.2518
     25 C25        48.3459    7.8258   29.8481 C.2     1  <0>         0.1777
     26 C26        51.1844    2.6033   32.8234 C.2     1  <0>         0.0717
     27 N1         46.3793    6.7233   31.0360 N.am    1  <0>        -0.2595
     28 O1         50.9083    1.6488   33.5993 O.co2   1  <0>        -0.5446
     29 O2         44.5969    5.7453   31.9120 O.2     1  <0>        -0.2696
     30 O3         48.1681    7.3224   28.7399 O.2     1  <0>        -0.2907
     31 O4         52.3427    2.9531   32.6060 O.co2   1  <0>        -0.5446
     32 Cl1        43.8536   11.7703   34.7893 Cl      1  <0>        -0.0835
     33 H1         51.6862    8.7100   29.4849 H       1  <0>         0.0234
     34 H2         50.8555    7.2671   28.8108 H       1  <0>         0.0234
     35 H3         50.3628    8.9134   28.2875 H       1  <0>         0.0234
     36 H4         49.6984   13.6266   30.3555 H       1  <0>         0.0618
     37 H5         50.3732   12.1606   32.3352 H       1  <0>         0.0618
     38 H6         47.7107   12.9749   28.8920 H       1  <0>         0.0618
     39 H7         49.0378   10.0427   32.8688 H       1  <0>         0.0624
     40 H8         46.3737   10.8496   29.4161 H       1  <0>         0.0624
     41 H9         46.6445    4.0336   32.6677 H       1  <0>         0.0621
     42 H10        49.2607    5.2733   29.3199 H       1  <0>         0.0621
     43 H11        48.6104    2.8160   33.7570 H       1  <0>         0.0624
     44 H12        51.2434    4.0323   30.4068 H       1  <0>         0.0624
     45 H13        42.5792    9.1919   34.8632 H       1  <0>         0.0632
     46 H14        43.2075    7.0288   33.6401 H       1  <0>         0.0626
     47 H15        46.0038   11.2840   32.9716 H       1  <0>         0.0638
     48 H16        50.0887    7.7580   31.0961 H       1  <0>         0.0343
     49 H17        49.5930    9.4144   30.5695 H       1  <0>         0.0343
     50 H18        46.9547    5.7099   29.2894 H       1  <0>         0.0518
     51 H19        45.8060    4.8181   30.3654 H       1  <0>         0.0518
@<TRIPOS>BOND
     1     1    14    1
     2     2     3   ar
     3     2     4   ar
     4     3     5   ar
     5     4     6   ar
     6     5    17   ar
     7     6    17   ar
     8     7     9   ar
     9     7    16   ar
    10     8    10   ar
    11     8    16   ar
    12     9    18   ar
    13    10    18   ar
    14    11    12   ar
    15    11    19   ar
    16    12    20   ar
    17    13    19   ar
    18    13    21   ar
    19    14    25    1
    20    15    16    1
    21    15    27    1
    22    17    22    1
    23    18    26    1
    24    19    32    1
    25    20    21   ar
    26    20    24    1
    27    21    22    1
    28    22    23    2
    29    23    25    1
    30    23    27    1
    31    24    27   am
    32    24    29    2
    33    25    30    2
    34    26    28    1
    35    26    31    2
    36     1    33    1
    37     1    34    1
    38     1    35    1
    39     2    36    1
    40     3    37    1
    41     4    38    1
    42     5    39    1
    43     6    40    1
    44     7    41    1
    45     8    42    1
    46     9    43    1
    47    10    44    1
    48    11    45    1
    49    12    46    1
    50    13    47    1
    51    14    48    1
    52    14    49    1
    53    15    50    1
    54    15    51    1
@<TRIPOS>SUBSTRUCTURE
     1 <0>         1 TEMP              0 ****  ****    0 ROOT

