
##########                                Name:        46C_901_2ZDT
##########                    Molecular_Weight:             444.894
##########                DOCK_Rotatable_Bonds:                   6
##########                       Formal_Charge:             -0.9998
##########                     HBond_Acceptors:                   6
##########                        HBond_Donors:                   0
##########                         Heavy_Atoms:                  32
##########                            HA_RMSDs:               0.135
##########                            HA_RMSDh:               0.135
##########                            HA_RMSDm:               0.135
##########                          Grid_Score:          -13.809525
##########                     Grid_vdw_energy:          -52.223064
##########                      Grid_es_energy:           38.413540
##########           Internal_energy_repulsive:           23.521389

@<TRIPOS>MOLECULE
46C_901_2ZDT
 51 54 1 0 0
SMALL
USER_CHARGES


@<TRIPOS>ATOM
      1 C1         50.9235    8.0568   29.0702 C.3     1  <0>        -0.0582
      2 C2         49.3332   12.5115   30.2523 C.ar    1  <0>        -0.0617
      3 C3         49.3262   11.9997   31.6373 C.ar    1  <0>        -0.0612
      4 C4         48.5620   11.8200   29.1994 C.ar    1  <0>        -0.0612
      5 C5         48.5453   10.8028   31.9748 C.ar    1  <0>        -0.0540
      6 C6         47.7775   10.6178   29.5239 C.ar    1  <0>        -0.0540
      7 C7         47.7059    3.9264   32.1782 C.ar    1  <0>        -0.0564
      8 C8         49.2581    4.4889   30.2076 C.ar    1  <0>        -0.0564
      9 C9         48.8048    3.2438   32.8475 C.ar    1  <0>        -0.0526
     10 C10        50.3680    3.7954   30.8797 C.ar    1  <0>        -0.0526
     11 C11        43.5082    9.1276   33.8684 C.ar    1  <0>        -0.0426
     12 C12        43.8653    7.8696   33.2275 C.ar    1  <0>        -0.0477
     13 C13        45.5303   10.2950   32.7807 C.ar    1  <0>        -0.0349
     14 C14        49.9192    7.9158   30.1952 C.3     1  <0>         0.0089
     15 C15        46.8307    5.2653   30.2152 C.3     1  <0>         0.0452
     16 C16        47.9551    4.5351   30.8785 C.ar    1  <0>        -0.0297
     17 C17        47.7886   10.1375   30.9109 C.ar    1  <0>        -0.0154
     18 C18        50.1108    3.1862   32.1923 C.ar    1  <0>        -0.0027
     19 C19        44.3412   10.3151   33.6358 C.ar    1  <0>         0.0416
     20 C20        45.0545    7.8634   32.3682 C.ar    1  <0>         0.0451
     21 C21        45.8667    9.0413   32.1482 C.ar    1  <0>        -0.0019
     22 C22        47.0029    8.9589   31.2412 C.2     1  <0>         0.0149
     23 C23        47.3217    7.6928   30.6324 C.2     1  <0>         0.0878
     24 C24        45.4213    6.6050   31.6330 C.2     1  <0>         0.2518
     25 C25        48.5160    7.5923   29.6913 C.2     1  <0>         0.1777
     26 C26        51.2327    2.4584   32.9197 C.2     1  <0>         0.0717
     27 N1         46.5102    6.5501   30.8678 N.am    1  <0>        -0.2595
     28 O1         50.9328    1.5041   33.6870 O.co2   1  <0>        -0.5446
     29 O2         44.6973    5.6195   31.7331 O.2     1  <0>        -0.2696
     30 O3         48.3242    7.2290   28.5318 O.2     1  <0>        -0.2907
     31 O4         52.3955    2.8208   32.7532 O.co2   1  <0>        -0.5446
     32 Cl1        43.9402   11.7500   34.3742 Cl      1  <0>        -0.0835
     33 H1         51.9138    8.2889   29.4890 H       1  <0>         0.0234
     34 H2         50.9761    7.1142   28.5056 H       1  <0>         0.0234
     35 H3         50.6099    8.8696   28.3987 H       1  <0>         0.0234
     36 H4         49.9044   13.3950   30.0082 H       1  <0>         0.0618
     37 H5         49.8956   12.5060   32.4027 H       1  <0>         0.0618
     38 H6         48.5739   12.1978   28.1877 H       1  <0>         0.0618
     39 H7         48.5292   10.4211   32.9851 H       1  <0>         0.0624
     40 H8         47.2095   10.1034   28.7629 H       1  <0>         0.0624
     41 H9         46.7288    3.9799   32.6351 H       1  <0>         0.0621
     42 H10        49.3997    4.9530   29.2427 H       1  <0>         0.0621
     43 H11        48.6570    2.7864   33.8147 H       1  <0>         0.0624
     44 H12        51.3442    3.7356   30.4215 H       1  <0>         0.0624
     45 H13        42.6399    9.1870   34.5080 H       1  <0>         0.0632
     46 H14        43.2777    6.9761   33.3788 H       1  <0>         0.0626
     47 H15        46.1301   11.1804   32.6296 H       1  <0>         0.0638
     48 H16        50.2485    7.0999   30.8555 H       1  <0>         0.0343
     49 H17        49.8800    8.8661   30.7479 H       1  <0>         0.0343
     50 H18        47.1190    5.4698   29.1735 H       1  <0>         0.0518
     51 H19        45.9356    4.6270   30.2514 H       1  <0>         0.0518
@<TRIPOS>BOND
     1     1    14    1
     2     2     3   ar
     3     2     4   ar
     4     3     5   ar
     5     4     6   ar
     6     5    17   ar
     7     6    17   ar
     8     7     9   ar
     9     7    16   ar
    10     8    10   ar
    11     8    16   ar
    12     9    18   ar
    13    10    18   ar
    14    11    12   ar
    15    11    19   ar
    16    12    20   ar
    17    13    19   ar
    18    13    21   ar
    19    14    25    1
    20    15    16    1
    21    15    27    1
    22    17    22    1
    23    18    26    1
    24    19    32    1
    25    20    21   ar
    26    20    24    1
    27    21    22    1
    28    22    23    2
    29    23    25    1
    30    23    27    1
    31    24    27   am
    32    24    29    2
    33    25    30    2
    34    26    28    1
    35    26    31    2
    36     1    33    1
    37     1    34    1
    38     1    35    1
    39     2    36    1
    40     3    37    1
    41     4    38    1
    42     5    39    1
    43     6    40    1
    44     7    41    1
    45     8    42    1
    46     9    43    1
    47    10    44    1
    48    11    45    1
    49    12    46    1
    50    13    47    1
    51    14    48    1
    52    14    49    1
    53    15    50    1
    54    15    51    1
@<TRIPOS>SUBSTRUCTURE
     1 <0>         1 TEMP              0 ****  ****    0 ROOT

