
##########                                Name:        46C_901_2ZDT
##########                    Molecular_Weight:             444.894
##########                DOCK_Rotatable_Bonds:                   6
##########                       Formal_Charge:             -0.9998
##########                     HBond_Acceptors:                   6
##########                        HBond_Donors:                   0
##########                         Heavy_Atoms:                  32
##########                            HA_RMSDs:               0.151
##########                            HA_RMSDh:               0.151
##########                            HA_RMSDm:               0.151
##########                          Grid_Score:          -14.434170
##########                     Grid_vdw_energy:          -53.078629
##########                      Grid_es_energy:           38.644459
##########           Internal_energy_repulsive:           21.596512

@<TRIPOS>MOLECULE
46C_901_2ZDT
 51 54 1 0 0
SMALL
USER_CHARGES


@<TRIPOS>ATOM
      1 C1         50.8867    8.0064   29.1363 C.3     1  <0>        -0.0582
      2 C2         49.3242   12.5171   30.2510 C.ar    1  <0>        -0.0617
      3 C3         49.3232   12.0076   31.6370 C.ar    1  <0>        -0.0612
      4 C4         48.5374   11.8317   29.2057 C.ar    1  <0>        -0.0612
      5 C5         48.5331   10.8192   31.9829 C.ar    1  <0>        -0.0540
      6 C6         47.7434   10.6380   29.5387 C.ar    1  <0>        -0.0540
      7 C7         47.6771    3.9696   32.2005 C.ar    1  <0>        -0.0564
      8 C8         49.1793    4.5208   30.1885 C.ar    1  <0>        -0.0564
      9 C9         48.7929    3.2923   32.8468 C.ar    1  <0>        -0.0526
     10 C10        50.3063    3.8326   30.8373 C.ar    1  <0>        -0.0526
     11 C11        43.4895    9.2000   33.9132 C.ar    1  <0>        -0.0426
     12 C12        43.8306    7.9367   33.2740 C.ar    1  <0>        -0.0477
     13 C13        45.5160   10.3446   32.8096 C.ar    1  <0>        -0.0349
     14 C14        49.8787    7.7592   30.2394 C.3     1  <0>         0.0089
     15 C15        46.7521    5.2951   30.2513 C.3     1  <0>         0.0452
     16 C16        47.8933    4.5702   30.8912 C.ar    1  <0>        -0.0297
     17 C17        47.7610   10.1599   30.9263 C.ar    1  <0>        -0.0154
     18 C18        50.0823    3.2316   32.1598 C.ar    1  <0>        -0.0027
     19 C19        44.3325   10.3787   33.6719 C.ar    1  <0>         0.0416
     20 C20        45.0143    7.9165   32.4073 C.ar    1  <0>         0.0451
     21 C21        45.8364    9.0859   32.1788 C.ar    1  <0>        -0.0019
     22 C22        46.9661    8.9899   31.2651 C.2     1  <0>         0.0149
     23 C23        47.2689    7.7190   30.6581 C.2     1  <0>         0.0878
     24 C24        45.3645    6.6525   31.6738 C.2     1  <0>         0.2518
     25 C25        48.4563    7.6043   29.7099 C.2     1  <0>         0.1777
     26 C26        51.2226    2.5095   32.8638 C.2     1  <0>         0.0717
     27 N1         46.4480    6.5849   30.9020 N.am    1  <0>        -0.2595
     28 O1         50.9424    1.7000   33.7888 O.co2   1  <0>        -0.5446
     29 O2         44.6317    5.6743   31.7813 O.2     1  <0>        -0.2696
     30 O3         48.2417    7.3670   28.5221 O.2     1  <0>        -0.2907
     31 O4         52.3823    2.7375   32.5256 O.co2   1  <0>        -0.5446
     32 Cl1        43.9499   11.8195   34.4085 Cl      1  <0>        -0.0835
     33 H1         51.8910    8.1100   29.5730 H       1  <0>         0.0234
     34 H2         50.8777    7.1591   28.4349 H       1  <0>         0.0234
     35 H3         50.6235    8.9297   28.5995 H       1  <0>         0.0234
     36 H4         49.9023   13.3943   30.0008 H       1  <0>         0.0618
     37 H5         49.9041   12.5094   32.3968 H       1  <0>         0.0618
     38 H6         48.5449   12.2077   28.1933 H       1  <0>         0.0618
     39 H7         48.5213   10.4393   32.9939 H       1  <0>         0.0624
     40 H8         47.1641   10.1282   28.7831 H       1  <0>         0.0624
     41 H9         46.7115    4.0252   32.6811 H       1  <0>         0.0621
     42 H10        49.2965    4.9789   29.2174 H       1  <0>         0.0621
     43 H11        48.6696    2.8409   33.8201 H       1  <0>         0.0624
     44 H12        51.2709    3.7708   30.3555 H       1  <0>         0.0624
     45 H13        42.6259    9.2696   34.5580 H       1  <0>         0.0632
     46 H14        43.2354    7.0494   33.4317 H       1  <0>         0.0626
     47 H15        46.1233   11.2237   32.6521 H       1  <0>         0.0638
     48 H16        50.1574    6.8336   30.7644 H       1  <0>         0.0343
     49 H17        49.9016    8.6151   30.9300 H       1  <0>         0.0343
     50 H18        47.0136    5.4916   29.2010 H       1  <0>         0.0518
     51 H19        45.8584    4.6570   30.3153 H       1  <0>         0.0518
@<TRIPOS>BOND
     1     1    14    1
     2     2     3   ar
     3     2     4   ar
     4     3     5   ar
     5     4     6   ar
     6     5    17   ar
     7     6    17   ar
     8     7     9   ar
     9     7    16   ar
    10     8    10   ar
    11     8    16   ar
    12     9    18   ar
    13    10    18   ar
    14    11    12   ar
    15    11    19   ar
    16    12    20   ar
    17    13    19   ar
    18    13    21   ar
    19    14    25    1
    20    15    16    1
    21    15    27    1
    22    17    22    1
    23    18    26    1
    24    19    32    1
    25    20    21   ar
    26    20    24    1
    27    21    22    1
    28    22    23    2
    29    23    25    1
    30    23    27    1
    31    24    27   am
    32    24    29    2
    33    25    30    2
    34    26    28    1
    35    26    31    2
    36     1    33    1
    37     1    34    1
    38     1    35    1
    39     2    36    1
    40     3    37    1
    41     4    38    1
    42     5    39    1
    43     6    40    1
    44     7    41    1
    45     8    42    1
    46     9    43    1
    47    10    44    1
    48    11    45    1
    49    12    46    1
    50    13    47    1
    51    14    48    1
    52    14    49    1
    53    15    50    1
    54    15    51    1
@<TRIPOS>SUBSTRUCTURE
     1 <0>         1 TEMP              0 ****  ****    0 ROOT

