
##########                                Name:        46C_901_2ZDT
##########                    Molecular_Weight:             444.894
##########                DOCK_Rotatable_Bonds:                   6
##########                       Formal_Charge:             -0.9998
##########                     HBond_Acceptors:                   6
##########                        HBond_Donors:                   0
##########                         Heavy_Atoms:                  32
##########                            HA_RMSDs:               0.378
##########                            HA_RMSDh:               0.378
##########                            HA_RMSDm:               0.378
##########                          Grid_Score:          -11.783363
##########                     Grid_vdw_energy:          -49.801731
##########                      Grid_es_energy:           38.018368
##########           Internal_energy_repulsive:           24.377134

@<TRIPOS>MOLECULE
46C_901_2ZDT
 51 54 1 0 0
SMALL
USER_CHARGES


@<TRIPOS>ATOM
      1 C1         50.9359    8.0410   29.5003 C.3     1  <0>        -0.0582
      2 C2         49.1401   12.5029   30.6393 C.ar    1  <0>        -0.0617
      3 C3         49.2485   11.8163   31.9421 C.ar    1  <0>        -0.0612
      4 C4         48.2607   11.9613   29.5835 C.ar    1  <0>        -0.0612
      5 C5         48.4754   10.5939   32.1954 C.ar    1  <0>        -0.0540
      6 C6         47.4826   10.7353   29.8237 C.ar    1  <0>        -0.0540
      7 C7         48.0340    4.0589   32.1747 C.ar    1  <0>        -0.0564
      8 C8         49.3020    4.6673   30.0227 C.ar    1  <0>        -0.0564
      9 C9         49.2618    3.5217   32.7451 C.ar    1  <0>        -0.0526
     10 C10        50.5422    4.1204   30.5951 C.ar    1  <0>        -0.0526
     11 C11        43.1565    8.9066   33.7537 C.ar    1  <0>        -0.0426
     12 C12        43.5887    7.6717   33.1142 C.ar    1  <0>        -0.0477
     13 C13        45.2216   10.1438   32.8374 C.ar    1  <0>        -0.0349
     14 C14        49.8466    7.8637   30.5377 C.3     1  <0>         0.0089
     15 C15        46.8227    5.2035   30.2682 C.3     1  <0>         0.0452
     16 C16        48.0799    4.6212   30.8317 C.ar    1  <0>        -0.0297
     17 C17        47.6099   10.0796   31.1307 C.ar    1  <0>        -0.0154
     18 C18        50.4896    3.5576   31.9519 C.ar    1  <0>        -0.0027
     19 C19        43.9748   10.1177   33.6057 C.ar    1  <0>         0.0416
     20 C20        44.8355    7.7118   32.3420 C.ar    1  <0>         0.0451
     21 C21        45.6324    8.9125   32.2049 C.ar    1  <0>        -0.0019
     22 C22        46.8317    8.8763   31.3798 C.2     1  <0>         0.0149
     23 C23        47.2236    7.6317   30.7693 C.2     1  <0>         0.0878
     24 C24        45.2841    6.4787   31.6091 C.2     1  <0>         0.2518
     25 C25        48.4836    7.5795   29.9139 C.2     1  <0>         0.1777
     26 C26        51.7510    2.9807   32.5792 C.2     1  <0>         0.0717
     27 N1         46.4255    6.4658   30.9226 N.am    1  <0>        -0.2595
     28 O1         51.6298    2.1575   33.5264 O.co2   1  <0>        -0.5446
     29 O2         44.5790    5.4750   31.6369 O.2     1  <0>        -0.2696
     30 O3         48.3769    7.2867   28.7239 O.2     1  <0>        -0.2907
     31 O4         52.8508    3.3351   32.1597 O.co2   1  <0>        -0.5446
     32 Cl1        43.4876   11.5262   34.3431 Cl      1  <0>        -0.0835
     33 H1         51.8930    8.2427   30.0036 H       1  <0>         0.0234
     34 H2         51.0235    7.1232   28.9004 H       1  <0>         0.0234
     35 H3         50.6822    8.8859   28.8432 H       1  <0>         0.0234
     36 H4         49.7061   13.4046   30.4577 H       1  <0>         0.0618
     37 H5         49.8967   12.2135   32.7092 H       1  <0>         0.0618
     38 H6         48.1883   12.4667   28.6318 H       1  <0>         0.0618
     39 H7         48.5433   10.0849   33.1456 H       1  <0>         0.0624
     40 H8         46.8360   10.3296   29.0597 H       1  <0>         0.0624
     41 H9         47.1107    4.0407   32.7346 H       1  <0>         0.0621
     42 H10        49.2920    5.0926   29.0300 H       1  <0>         0.0621
     43 H11        49.2652    3.1025   33.7404 H       1  <0>         0.0624
     44 H12        51.4650    4.1323   30.0342 H       1  <0>         0.0624
     45 H13        42.2439    8.9318   34.3308 H       1  <0>         0.0632
     46 H14        43.0138    6.7618   33.2048 H       1  <0>         0.0626
     47 H15        45.8089   11.0457   32.7478 H       1  <0>         0.0638
     48 H16        50.1168    7.0161   31.1846 H       1  <0>         0.0343
     49 H17        49.7733    8.7896   31.1271 H       1  <0>         0.0343
     50 H18        46.9848    5.4052   29.1990 H       1  <0>         0.0518
     51 H19        46.0118    4.4732   30.4062 H       1  <0>         0.0518
@<TRIPOS>BOND
     1     1    14    1
     2     2     3   ar
     3     2     4   ar
     4     3     5   ar
     5     4     6   ar
     6     5    17   ar
     7     6    17   ar
     8     7     9   ar
     9     7    16   ar
    10     8    10   ar
    11     8    16   ar
    12     9    18   ar
    13    10    18   ar
    14    11    12   ar
    15    11    19   ar
    16    12    20   ar
    17    13    19   ar
    18    13    21   ar
    19    14    25    1
    20    15    16    1
    21    15    27    1
    22    17    22    1
    23    18    26    1
    24    19    32    1
    25    20    21   ar
    26    20    24    1
    27    21    22    1
    28    22    23    2
    29    23    25    1
    30    23    27    1
    31    24    27   am
    32    24    29    2
    33    25    30    2
    34    26    28    1
    35    26    31    2
    36     1    33    1
    37     1    34    1
    38     1    35    1
    39     2    36    1
    40     3    37    1
    41     4    38    1
    42     5    39    1
    43     6    40    1
    44     7    41    1
    45     8    42    1
    46     9    43    1
    47    10    44    1
    48    11    45    1
    49    12    46    1
    50    13    47    1
    51    14    48    1
    52    14    49    1
    53    15    50    1
    54    15    51    1
@<TRIPOS>SUBSTRUCTURE
     1 <0>         1 TEMP              0 ****  ****    0 ROOT

