
##########                                Name:        46C_901_2ZDT
##########                    Molecular_Weight:             444.894
##########                DOCK_Rotatable_Bonds:                   6
##########                       Formal_Charge:             -0.9998
##########                     HBond_Acceptors:                   6
##########                        HBond_Donors:                   0
##########                         Heavy_Atoms:                  32
##########                            HA_RMSDs:               5.397
##########                            HA_RMSDh:               5.315
##########                            HA_RMSDm:               4.293
##########                          Grid_Score:          -13.930693
##########                     Grid_vdw_energy:          -44.511700
##########                      Grid_es_energy:           30.581007
##########           Internal_energy_repulsive:           30.863598

@<TRIPOS>MOLECULE
46C_901_2ZDT
 51 54 1 0 0
SMALL
USER_CHARGES


@<TRIPOS>ATOM
      1 C1         53.4777   12.3431   28.1421 C.3     1  <0>        -0.0582
      2 C2         48.6631   14.1252   29.5523 C.ar    1  <0>        -0.0617
      3 C3         48.6485   13.3210   30.7907 C.ar    1  <0>        -0.0612
      4 C4         49.0250   13.5007   28.2637 C.ar    1  <0>        -0.0612
      5 C5         48.9877   11.8930   30.7440 C.ar    1  <0>        -0.0540
      6 C6         49.3697   12.0711   28.2037 C.ar    1  <0>        -0.0540
      7 C7         53.7135    6.4303   29.5475 C.ar    1  <0>        -0.0564
      8 C8         54.5329    8.6538   28.5508 C.ar    1  <0>        -0.0564
      9 C9         54.8921    6.3799   30.4016 C.ar    1  <0>        -0.0526
     10 C10        55.7268    8.6022   29.4091 C.ar    1  <0>        -0.0526
     11 C11        47.0607    6.8089   31.1019 C.ar    1  <0>        -0.0426
     12 C12        48.2607    6.4130   30.3780 C.ar    1  <0>        -0.0477
     13 C13        47.6137    9.2965   30.7262 C.ar    1  <0>        -0.0349
     14 C14        52.5914   11.4137   28.9451 C.3     1  <0>         0.0089
     15 C15        52.3259    7.6252   27.7984 C.3     1  <0>         0.0452
     16 C16        53.5572    7.5633   28.6454 C.ar    1  <0>        -0.0297
     17 C17        49.3415   11.2994   29.4519 C.ar    1  <0>        -0.0154
     18 C18        55.8767    7.4579   30.3193 C.ar    1  <0>        -0.0027
     19 C19        46.7565    8.2371   31.2634 C.ar    1  <0>         0.0416
     20 C20        49.1078    7.4828   29.8389 C.ar    1  <0>         0.0451
     21 C21        48.7961    8.8865   30.0061 C.ar    1  <0>        -0.0019
     22 C22        49.6662    9.8827   29.3968 C.2     1  <0>         0.0149
     23 C23        50.8448    9.4455   28.6932 C.2     1  <0>         0.0878
     24 C24        50.3193    7.1199   29.0270 C.2     1  <0>         0.2518
     25 C25        51.7689   10.4800   28.0623 C.2     1  <0>         0.1777
     26 C26        57.0986    7.3668   31.2227 C.2     1  <0>         0.0717
     27 N1         51.1302    8.0610   28.5465 N.am    1  <0>        -0.2595
     28 O1         57.3875    6.2511   31.7337 O.co2   1  <0>        -0.5446
     29 O2         50.5542    5.9380   28.7960 O.2     1  <0>        -0.2696
     30 O3         51.8484   10.5297   26.8358 O.2     1  <0>        -0.2907
     31 O4         57.7648    8.3765   31.4414 O.co2   1  <0>        -0.5446
     32 Cl1        45.3917    8.6910   32.0977 Cl      1  <0>        -0.0835
     33 H1         54.0455   12.9910   28.8261 H       1  <0>         0.0234
     34 H2         54.1767   11.7493   27.5349 H       1  <0>         0.0234
     35 H3         52.8545   12.9642   27.4818 H       1  <0>         0.0234
     36 H4         48.4083   15.1740   29.5890 H       1  <0>         0.0618
     37 H5         48.3880   13.7833   31.7314 H       1  <0>         0.0618
     38 H6         49.0367   14.0953   27.3622 H       1  <0>         0.0618
     39 H7         48.9768   11.2935   31.6424 H       1  <0>         0.0624
     40 H8         49.6359   11.6031   27.2675 H       1  <0>         0.0624
     41 H9         52.9723    5.6456   29.5821 H       1  <0>         0.0621
     42 H10        54.3788    9.4756   27.8672 H       1  <0>         0.0621
     43 H11        55.0370    5.5575   31.0865 H       1  <0>         0.0624
     44 H12        56.4720    9.3830   29.3714 H       1  <0>         0.0624
     45 H13        46.4011    6.0604   31.5156 H       1  <0>         0.0632
     46 H14        48.5170    5.3725   30.2432 H       1  <0>         0.0626
     47 H15        47.3716   10.3401   30.8630 H       1  <0>         0.0638
     48 H16        53.2306   10.8016   29.5984 H       1  <0>         0.0343
     49 H17        51.9002   12.0239   29.5450 H       1  <0>         0.0343
     50 H18        52.5035    8.3423   26.9833 H       1  <0>         0.0518
     51 H19        52.1334    6.6201   27.3952 H       1  <0>         0.0518
@<TRIPOS>BOND
     1     1    14    1
     2     2     3   ar
     3     2     4   ar
     4     3     5   ar
     5     4     6   ar
     6     5    17   ar
     7     6    17   ar
     8     7     9   ar
     9     7    16   ar
    10     8    10   ar
    11     8    16   ar
    12     9    18   ar
    13    10    18   ar
    14    11    12   ar
    15    11    19   ar
    16    12    20   ar
    17    13    19   ar
    18    13    21   ar
    19    14    25    1
    20    15    16    1
    21    15    27    1
    22    17    22    1
    23    18    26    1
    24    19    32    1
    25    20    21   ar
    26    20    24    1
    27    21    22    1
    28    22    23    2
    29    23    25    1
    30    23    27    1
    31    24    27   am
    32    24    29    2
    33    25    30    2
    34    26    28    1
    35    26    31    2
    36     1    33    1
    37     1    34    1
    38     1    35    1
    39     2    36    1
    40     3    37    1
    41     4    38    1
    42     5    39    1
    43     6    40    1
    44     7    41    1
    45     8    42    1
    46     9    43    1
    47    10    44    1
    48    11    45    1
    49    12    46    1
    50    13    47    1
    51    14    48    1
    52    14    49    1
    53    15    50    1
    54    15    51    1
@<TRIPOS>SUBSTRUCTURE
     1 <0>         1 TEMP              0 ****  ****    0 ROOT

