
##########                                Name:        46C_901_2ZDT
##########                    Molecular_Weight:             444.894
##########                DOCK_Rotatable_Bonds:                   6
##########                       Formal_Charge:             -0.9998
##########                     HBond_Acceptors:                   6
##########                        HBond_Donors:                   0
##########                         Heavy_Atoms:                  32
##########                            HA_RMSDs:               0.436
##########                            HA_RMSDh:               0.436
##########                            HA_RMSDm:               0.436
##########                          Grid_Score:          -19.181660
##########                     Grid_vdw_energy:          -57.122059
##########                      Grid_es_energy:           37.940399
##########           Internal_energy_repulsive:           26.034285

@<TRIPOS>MOLECULE
46C_901_2ZDT
 51 54 1 0 0
SMALL
USER_CHARGES


@<TRIPOS>ATOM
      1 C1         50.8458    8.0923   29.0220 C.3     1  <0>        -0.0582
      2 C2         49.2074   12.5978   30.4003 C.ar    1  <0>        -0.0617
      3 C3         49.4464   11.8969   31.6778 C.ar    1  <0>        -0.0612
      4 C4         48.2183   12.0729   29.4372 C.ar    1  <0>        -0.0612
      5 C5         48.6951   10.6768   31.9987 C.ar    1  <0>        -0.0540
      6 C6         47.4606   10.8494   29.7455 C.ar    1  <0>        -0.0540
      7 C7         48.0559    4.0288   31.9934 C.ar    1  <0>        -0.0564
      8 C8         49.2704    4.7522   29.8461 C.ar    1  <0>        -0.0564
      9 C9         49.2891    3.4330   32.4890 C.ar    1  <0>        -0.0526
     10 C10        50.5159    4.1465   30.3428 C.ar    1  <0>        -0.0526
     11 C11        43.5546    9.0073   34.0869 C.ar    1  <0>        -0.0426
     12 C12        43.9089    7.7763   33.3942 C.ar    1  <0>        -0.0477
     13 C13        45.5220   10.2409   32.9722 C.ar    1  <0>        -0.0349
     14 C14        49.8560    8.0253   30.1666 C.3     1  <0>         0.0089
     15 C15        46.8111    5.3171   30.2037 C.3     1  <0>         0.0452
     16 C16        48.0727    4.6762   30.6886 C.ar    1  <0>        -0.0297
     17 C17        47.7191   10.1792   31.0255 C.ar    1  <0>        -0.0154
     18 C18        50.4929    3.4977   31.6614 C.ar    1  <0>        -0.0027
     19 C19        44.3618   10.2148   33.8660 C.ar    1  <0>         0.0416
     20 C20        45.0689    7.8165   32.4968 C.ar    1  <0>         0.0451
     21 C21        45.8558    9.0136   32.2888 C.ar    1  <0>        -0.0019
     22 C22        46.9624    8.9783   31.3429 C.2     1  <0>         0.0149
     23 C23        47.2796    7.7376   30.6832 C.2     1  <0>         0.0878
     24 C24        45.4298    6.5882   31.7096 C.2     1  <0>         0.2518
     25 C25        48.4433    7.6862   29.7008 C.2     1  <0>         0.1777
     26 C26        51.7606    2.8580   32.2102 C.2     1  <0>         0.0717
     27 N1         46.4934    6.5751   30.9078 N.am    1  <0>        -0.2595
     28 O1         51.6689    2.1129   33.2231 O.co2   1  <0>        -0.5446
     29 O2         44.7242    5.5886   31.8012 O.2     1  <0>        -0.2696
     30 O3         48.2199    7.3493   28.5390 O.2     1  <0>        -0.2907
     31 O4         52.8382    3.0886   31.6654 O.co2   1  <0>        -0.5446
     32 Cl1        43.9642   11.6188   34.6633 Cl      1  <0>        -0.0835
     33 H1         51.8438    8.3391   29.4135 H       1  <0>         0.0234
     34 H2         50.8828    7.1184   28.5120 H       1  <0>         0.0234
     35 H3         50.5297    8.8680   28.3091 H       1  <0>         0.0234
     36 H4         49.7579   13.4978   30.1693 H       1  <0>         0.0618
     37 H5         50.1743   12.2820   32.3767 H       1  <0>         0.0618
     38 H6         48.0505   12.5887   28.5032 H       1  <0>         0.0618
     39 H7         48.8582   10.1575   32.9316 H       1  <0>         0.0624
     40 H8         46.7347   10.4558   29.0494 H       1  <0>         0.0624
     41 H9         47.1498    3.9913   32.5798 H       1  <0>         0.0621
     42 H10        49.2391    5.2413   28.8837 H       1  <0>         0.0621
     43 H11        49.3141    2.9500   33.4546 H       1  <0>         0.0624
     44 H12        51.4214    4.1777   29.7549 H       1  <0>         0.0624
     45 H13        42.7073    9.0324   34.7562 H       1  <0>         0.0632
     46 H14        43.3400    6.8692   33.5356 H       1  <0>         0.0626
     47 H15        46.1033   11.1401   32.8305 H       1  <0>         0.0638
     48 H16        50.1877    7.2458   30.8682 H       1  <0>         0.0343
     49 H17        49.8324    9.0061   30.6640 H       1  <0>         0.0343
     50 H18        46.9272    5.5408   29.1329 H       1  <0>         0.0518
     51 H19        45.9820    4.6125   30.3648 H       1  <0>         0.0518
@<TRIPOS>BOND
     1     1    14    1
     2     2     3   ar
     3     2     4   ar
     4     3     5   ar
     5     4     6   ar
     6     5    17   ar
     7     6    17   ar
     8     7     9   ar
     9     7    16   ar
    10     8    10   ar
    11     8    16   ar
    12     9    18   ar
    13    10    18   ar
    14    11    12   ar
    15    11    19   ar
    16    12    20   ar
    17    13    19   ar
    18    13    21   ar
    19    14    25    1
    20    15    16    1
    21    15    27    1
    22    17    22    1
    23    18    26    1
    24    19    32    1
    25    20    21   ar
    26    20    24    1
    27    21    22    1
    28    22    23    2
    29    23    25    1
    30    23    27    1
    31    24    27   am
    32    24    29    2
    33    25    30    2
    34    26    28    1
    35    26    31    2
    36     1    33    1
    37     1    34    1
    38     1    35    1
    39     2    36    1
    40     3    37    1
    41     4    38    1
    42     5    39    1
    43     6    40    1
    44     7    41    1
    45     8    42    1
    46     9    43    1
    47    10    44    1
    48    11    45    1
    49    12    46    1
    50    13    47    1
    51    14    48    1
    52    14    49    1
    53    15    50    1
    54    15    51    1
@<TRIPOS>SUBSTRUCTURE
     1 <0>         1 TEMP              0 ****  ****    0 ROOT

