
##########                                Name:        46C_901_2ZDT
##########                    Molecular_Weight:             444.894
##########                DOCK_Rotatable_Bonds:                   6
##########                       Formal_Charge:             -0.9998
##########                     HBond_Acceptors:                   6
##########                        HBond_Donors:                   0
##########                         Heavy_Atoms:                  32
##########                            HA_RMSDs:               0.369
##########                            HA_RMSDh:               0.369
##########                            HA_RMSDm:               0.369
##########                          Grid_Score:          -19.595917
##########                     Grid_vdw_energy:          -57.161205
##########                      Grid_es_energy:           37.565289
##########           Internal_energy_repulsive:           27.664814

@<TRIPOS>MOLECULE
46C_901_2ZDT
 51 54 1 0 0
SMALL
USER_CHARGES


@<TRIPOS>ATOM
      1 C1         50.9463    8.1177   29.0474 C.3     1  <0>        -0.0582
      2 C2         49.2732   12.4481   30.3153 C.ar    1  <0>        -0.0617
      3 C3         49.2923   11.9229   31.6953 C.ar    1  <0>        -0.0612
      4 C4         48.5127   11.7453   29.2621 C.ar    1  <0>        -0.0612
      5 C5         48.5482   10.7012   32.0273 C.ar    1  <0>        -0.0540
      6 C6         47.7650   10.5184   29.5811 C.ar    1  <0>        -0.0540
      7 C7         48.1007    3.7839   32.0226 C.ar    1  <0>        -0.0564
      8 C8         49.4543    4.6494   30.0157 C.ar    1  <0>        -0.0564
      9 C9         49.3082    3.1897   32.5795 C.ar    1  <0>        -0.0526
     10 C10        50.6742    4.0454   30.5740 C.ar    1  <0>        -0.0526
     11 C11        43.5939    8.8621   33.9686 C.ar    1  <0>        -0.0426
     12 C12        43.9742    7.6230   33.3048 C.ar    1  <0>        -0.0477
     13 C13        45.5682   10.0973   32.8680 C.ar    1  <0>        -0.0349
     14 C14        49.9790    7.8675   30.1857 C.3     1  <0>         0.0089
     15 C15        46.9611    5.1395   30.2127 C.3     1  <0>         0.0452
     16 C16        48.1988    4.5014   30.7587 C.ar    1  <0>        -0.0297
     17 C17        47.8014   10.0253   30.9631 C.ar    1  <0>        -0.0154
     18 C18        50.5689    3.3258   31.8512 C.ar    1  <0>        -0.0027
     19 C19        44.3920   10.0743   33.7407 C.ar    1  <0>         0.0416
     20 C20        45.1500    7.6600   32.4281 C.ar    1  <0>         0.0451
     21 C21        45.9277    8.8618   32.2130 C.ar    1  <0>        -0.0019
     22 C22        47.0520    8.8219   31.2883 C.2     1  <0>         0.0149
     23 C23        47.3946    7.5732   30.6570 C.2     1  <0>         0.0878
     24 C24        45.5386    6.4219   31.6699 C.2     1  <0>         0.2518
     25 C25        48.5767    7.5172   29.6971 C.2     1  <0>         0.1777
     26 C26        51.8079    2.6855   32.4613 C.2     1  <0>         0.0717
     27 N1         46.6169    6.4063   30.8881 N.am    1  <0>        -0.2595
     28 O1         51.6543    1.7652   33.3092 O.co2   1  <0>        -0.5446
     29 O2         44.8422    5.4163   31.7667 O.2     1  <0>        -0.2696
     30 O3         48.3766    7.1675   28.5348 O.2     1  <0>        -0.2907
     31 O4         52.9214    3.0837   32.1253 O.co2   1  <0>        -0.5446
     32 Cl1        43.9647   11.4878   34.5051 Cl      1  <0>        -0.0835
     33 H1         51.9375    8.3650   29.4554 H       1  <0>         0.0234
     34 H2         51.0213    7.2140   28.4248 H       1  <0>         0.0234
     35 H3         50.5826    8.9559   28.4349 H       1  <0>         0.0234
     36 H4         49.8173   13.3495   30.0753 H       1  <0>         0.0618
     37 H5         49.8539   12.4376   32.4609 H       1  <0>         0.0618
     38 H6         48.5054   12.1331   28.2541 H       1  <0>         0.0618
     39 H7         48.5514   10.3095   33.0338 H       1  <0>         0.0624
     40 H8         47.2052    9.9957   28.8197 H       1  <0>         0.0624
     41 H9         47.1543    3.6947   32.5351 H       1  <0>         0.0621
     42 H10        49.4828    5.1892   29.0807 H       1  <0>         0.0621
     43 H11        49.2730    2.6557   33.5176 H       1  <0>         0.0624
     44 H12        51.6203    4.1285   30.0598 H       1  <0>         0.0624
     45 H13        42.7341    8.8898   34.6217 H       1  <0>         0.0632
     46 H14        43.4126    6.7123   33.4521 H       1  <0>         0.0626
     47 H15        46.1423   11.0002   32.7207 H       1  <0>         0.0638
     48 H16        50.3581    7.0276   30.7863 H       1  <0>         0.0343
     49 H17        49.9167    8.7802   30.7965 H       1  <0>         0.0343
     50 H18        47.1237    5.3505   29.1454 H       1  <0>         0.0518
     51 H19        46.1238    4.4387   30.3460 H       1  <0>         0.0518
@<TRIPOS>BOND
     1     1    14    1
     2     2     3   ar
     3     2     4   ar
     4     3     5   ar
     5     4     6   ar
     6     5    17   ar
     7     6    17   ar
     8     7     9   ar
     9     7    16   ar
    10     8    10   ar
    11     8    16   ar
    12     9    18   ar
    13    10    18   ar
    14    11    12   ar
    15    11    19   ar
    16    12    20   ar
    17    13    19   ar
    18    13    21   ar
    19    14    25    1
    20    15    16    1
    21    15    27    1
    22    17    22    1
    23    18    26    1
    24    19    32    1
    25    20    21   ar
    26    20    24    1
    27    21    22    1
    28    22    23    2
    29    23    25    1
    30    23    27    1
    31    24    27   am
    32    24    29    2
    33    25    30    2
    34    26    28    1
    35    26    31    2
    36     1    33    1
    37     1    34    1
    38     1    35    1
    39     2    36    1
    40     3    37    1
    41     4    38    1
    42     5    39    1
    43     6    40    1
    44     7    41    1
    45     8    42    1
    46     9    43    1
    47    10    44    1
    48    11    45    1
    49    12    46    1
    50    13    47    1
    51    14    48    1
    52    14    49    1
    53    15    50    1
    54    15    51    1
@<TRIPOS>SUBSTRUCTURE
     1 <0>         1 TEMP              0 ****  ****    0 ROOT

