
##########                                Name:        46C_901_2ZDT
##########                    Molecular_Weight:             444.894
##########                DOCK_Rotatable_Bonds:                   6
##########                       Formal_Charge:             -0.9998
##########                     HBond_Acceptors:                   6
##########                        HBond_Donors:                   0
##########                         Heavy_Atoms:                  32
##########                            HA_RMSDs:               0.253
##########                            HA_RMSDh:               0.253
##########                            HA_RMSDm:               0.253
##########                          Grid_Score:          -12.518562
##########                     Grid_vdw_energy:          -50.715977
##########                      Grid_es_energy:           38.197414
##########           Internal_energy_repulsive:           30.421776

@<TRIPOS>MOLECULE
46C_901_2ZDT
 51 54 1 0 0
SMALL
USER_CHARGES


@<TRIPOS>ATOM
      1 C1         50.9877    8.0182   29.3092 C.3     1  <0>        -0.0582
      2 C2         49.4319   12.2629   30.5466 C.ar    1  <0>        -0.0617
      3 C3         49.3868   11.7018   31.9117 C.ar    1  <0>        -0.0612
      4 C4         48.6727   11.6227   29.4534 C.ar    1  <0>        -0.0612
      5 C5         48.5798   10.5067   32.1891 C.ar    1  <0>        -0.0540
      6 C6         47.8622   10.4229   29.7175 C.ar    1  <0>        -0.0540
      7 C7         47.7016    3.7568   32.3047 C.ar    1  <0>        -0.0564
      8 C8         49.2868    4.1852   30.3266 C.ar    1  <0>        -0.0564
      9 C9         48.7728    3.0697   33.0131 C.ar    1  <0>        -0.0526
     10 C10        50.3687    3.4869   31.0384 C.ar    1  <0>        -0.0526
     11 C11        43.3866    8.8811   33.7824 C.ar    1  <0>        -0.0426
     12 C12        43.7710    7.6281   33.1477 C.ar    1  <0>        -0.0477
     13 C13        45.4756   10.0457   32.8259 C.ar    1  <0>        -0.0349
     14 C14        49.9617    7.8369   30.4086 C.3     1  <0>         0.0089
     15 C15        46.8853    5.0367   30.2779 C.3     1  <0>         0.0452
     16 C16        47.9805    4.3010   30.9825 C.ar    1  <0>        -0.0297
     17 C17        47.8357    9.8930   31.0860 C.ar    1  <0>        -0.0154
     18 C18        50.0816    2.9431   32.3734 C.ar    1  <0>        -0.0027
     19 C19        44.2398   10.0649   33.6121 C.ar    1  <0>         0.0416
     20 C20        45.0072    7.6229   32.3575 C.ar    1  <0>         0.0451
     21 C21        45.8388    8.7971   32.1985 C.ar    1  <0>        -0.0019
     22 C22        47.0243    8.7166   31.3568 C.2     1  <0>         0.0149
     23 C23        47.3685    7.4553   30.7518 C.2     1  <0>         0.0878
     24 C24        45.4067    6.3704   31.6293 C.2     1  <0>         0.2518
     25 C25        48.6138    7.3568   29.8790 C.2     1  <0>         0.1777
     26 C26        51.1740    2.2126   33.1419 C.2     1  <0>         0.0717
     27 N1         46.5370    6.3162   30.9267 N.am    1  <0>        -0.2595
     28 O1         50.8489    1.5428   34.1593 O.co2   1  <0>        -0.5446
     29 O2         44.6713    5.3893   31.6760 O.2     1  <0>        -0.2696
     30 O3         48.5091    6.8676   28.7552 O.2     1  <0>        -0.2907
     31 O4         52.3403    2.2999   32.7637 O.co2   1  <0>        -0.5446
     32 Cl1        43.8073   11.4941   34.3438 Cl      1  <0>        -0.0835
     33 H1         51.9363    8.3640   29.7458 H       1  <0>         0.0234
     34 H2         51.1486    7.0587   28.7961 H       1  <0>         0.0234
     35 H3         50.6233    8.7638   28.5872 H       1  <0>         0.0234
     36 H4         50.0224   13.1449   30.3468 H       1  <0>         0.0618
     37 H5         49.9477   12.1706   32.7068 H       1  <0>         0.0618
     38 H6         48.7125   12.0365   28.4566 H       1  <0>         0.0618
     39 H7         48.5358   10.0893   33.1842 H       1  <0>         0.0624
     40 H8         47.3027    9.9459   28.9265 H       1  <0>         0.0624
     41 H9         46.7230    3.8606   32.7495 H       1  <0>         0.0621
     42 H10        49.4510    4.6026   29.3442 H       1  <0>         0.0621
     43 H11        48.6027    2.6592   33.9974 H       1  <0>         0.0624
     44 H12        51.3463    3.3769   30.5925 H       1  <0>         0.0624
     45 H13        42.4837    8.9396   34.3722 H       1  <0>         0.0632
     46 H14        43.1696    6.7374   33.2545 H       1  <0>         0.0626
     47 H15        46.0891   10.9282   32.7200 H       1  <0>         0.0638
     48 H16        50.3424    7.0893   31.1200 H       1  <0>         0.0343
     49 H17        49.8138    8.8049   30.9097 H       1  <0>         0.0343
     50 H18        47.2177    5.2496   29.2511 H       1  <0>         0.0518
     51 H19        45.9896    4.3982   30.2707 H       1  <0>         0.0518
@<TRIPOS>BOND
     1     1    14    1
     2     2     3   ar
     3     2     4   ar
     4     3     5   ar
     5     4     6   ar
     6     5    17   ar
     7     6    17   ar
     8     7     9   ar
     9     7    16   ar
    10     8    10   ar
    11     8    16   ar
    12     9    18   ar
    13    10    18   ar
    14    11    12   ar
    15    11    19   ar
    16    12    20   ar
    17    13    19   ar
    18    13    21   ar
    19    14    25    1
    20    15    16    1
    21    15    27    1
    22    17    22    1
    23    18    26    1
    24    19    32    1
    25    20    21   ar
    26    20    24    1
    27    21    22    1
    28    22    23    2
    29    23    25    1
    30    23    27    1
    31    24    27   am
    32    24    29    2
    33    25    30    2
    34    26    28    1
    35    26    31    2
    36     1    33    1
    37     1    34    1
    38     1    35    1
    39     2    36    1
    40     3    37    1
    41     4    38    1
    42     5    39    1
    43     6    40    1
    44     7    41    1
    45     8    42    1
    46     9    43    1
    47    10    44    1
    48    11    45    1
    49    12    46    1
    50    13    47    1
    51    14    48    1
    52    14    49    1
    53    15    50    1
    54    15    51    1
@<TRIPOS>SUBSTRUCTURE
     1 <0>         1 TEMP              0 ****  ****    0 ROOT

