
##########                                Name:        46C_901_2ZDT
##########                    Molecular_Weight:             444.894
##########                DOCK_Rotatable_Bonds:                   6
##########                       Formal_Charge:             -0.9998
##########                     HBond_Acceptors:                   6
##########                        HBond_Donors:                   0
##########                         Heavy_Atoms:                  32
##########                            HA_RMSDs:               0.367
##########                            HA_RMSDh:               0.367
##########                            HA_RMSDm:               0.367
##########                          Grid_Score:           -8.974808
##########                     Grid_vdw_energy:          -47.255760
##########                      Grid_es_energy:           38.280952
##########           Internal_energy_repulsive:           32.629837

@<TRIPOS>MOLECULE
46C_901_2ZDT
 51 54 1 0 0
SMALL
USER_CHARGES


@<TRIPOS>ATOM
      1 C1         51.1136    8.0210   29.2325 C.3     1  <0>        -0.0582
      2 C2         49.7521   12.2355   30.4572 C.ar    1  <0>        -0.0617
      3 C3         49.7156   11.6790   31.8245 C.ar    1  <0>        -0.0612
      4 C4         48.9443   11.6235   29.3828 C.ar    1  <0>        -0.0612
      5 C5         48.8691   10.5168   32.1228 C.ar    1  <0>        -0.0540
      6 C6         48.0938   10.4567   29.6680 C.ar    1  <0>        -0.0540
      7 C7         47.6560    3.7775   32.3391 C.ar    1  <0>        -0.0564
      8 C8         49.3121    4.1529   30.4091 C.ar    1  <0>        -0.0564
      9 C9         48.6782    3.0433   33.0722 C.ar    1  <0>        -0.0526
     10 C10        50.3446    3.4072   31.1457 C.ar    1  <0>        -0.0526
     11 C11        43.6165    9.1112   33.7804 C.ar    1  <0>        -0.0426
     12 C12        43.9513    7.8374   33.1590 C.ar    1  <0>        -0.0477
     13 C13        45.7378   10.1888   32.7935 C.ar    1  <0>        -0.0349
     14 C14        50.1176    7.8263   30.3568 C.3     1  <0>         0.0089
     15 C15        46.9492    5.1013   30.2995 C.3     1  <0>         0.0452
     16 C16        47.9936    4.3177   31.0291 C.ar    1  <0>        -0.0297
     17 C17        48.0772    9.9306   31.0382 C.ar    1  <0>        -0.0154
     18 C18        49.9984    2.8676   32.4683 C.ar    1  <0>        -0.0027
     19 C19        44.5097   10.2617   33.5886 C.ar    1  <0>         0.0416
     20 C20        45.1802    7.7784   32.3597 C.ar    1  <0>         0.0451
     21 C21        46.0516    8.9203   32.1795 C.ar    1  <0>        -0.0019
     22 C22        47.2269    8.7873   31.3301 C.2     1  <0>         0.0149
     23 C23        47.5214    7.5070   30.7387 C.2     1  <0>         0.0878
     24 C24        45.5294    6.5035   31.6447 C.2     1  <0>         0.2518
     25 C25        48.7555    7.3535   29.8581 C.2     1  <0>         0.1777
     26 C26        51.0383    2.0889   33.2618 C.2     1  <0>         0.0717
     27 N1         46.6515    6.4004   30.9344 N.am    1  <0>        -0.2595
     28 O1         50.6404    1.2550   34.1195 O.co2   1  <0>        -0.5446
     29 O2         44.7602    5.5498   31.7094 O.2     1  <0>        -0.2696
     30 O3         48.6300    6.8264   28.7537 O.2     1  <0>        -0.2907
     31 O4         52.2328    2.2962   33.0587 O.co2   1  <0>        -0.5446
     32 Cl1        44.1338   11.7143   34.3052 Cl      1  <0>        -0.0835
     33 H1         52.0740    8.3609   29.6474 H       1  <0>         0.0234
     34 H2         51.2598    7.0679   28.7032 H       1  <0>         0.0234
     35 H3         50.7303    8.7757   28.5299 H       1  <0>         0.0234
     36 H4         50.3718   13.0934   30.2420 H       1  <0>         0.0618
     37 H5         50.3119   12.1270   32.6056 H       1  <0>         0.0618
     38 H6         48.9778   12.0336   28.3842 H       1  <0>         0.0618
     39 H7         48.8310   10.1032   33.1198 H       1  <0>         0.0624
     40 H8         47.4985   10.0004   28.8909 H       1  <0>         0.0624
     41 H9         46.6702    3.9181   32.7572 H       1  <0>         0.0621
     42 H10        49.5205    4.5692   29.4345 H       1  <0>         0.0621
     43 H11        48.4641    2.6342   34.0485 H       1  <0>         0.0624
     44 H12        51.3290    3.2604   30.7264 H       1  <0>         0.0624
     45 H13        42.7210    9.2090   34.3761 H       1  <0>         0.0632
     46 H14        43.3196    6.9700   33.2817 H       1  <0>         0.0626
     47 H15        46.3813   11.0476   32.6718 H       1  <0>         0.0638
     48 H16        50.5169    7.0697   31.0483 H       1  <0>         0.0343
     49 H17        49.9841    8.7880   30.8739 H       1  <0>         0.0343
     50 H18        47.3110    5.2912   29.2782 H       1  <0>         0.0518
     51 H19        46.0237    4.5072   30.2786 H       1  <0>         0.0518
@<TRIPOS>BOND
     1     1    14    1
     2     2     3   ar
     3     2     4   ar
     4     3     5   ar
     5     4     6   ar
     6     5    17   ar
     7     6    17   ar
     8     7     9   ar
     9     7    16   ar
    10     8    10   ar
    11     8    16   ar
    12     9    18   ar
    13    10    18   ar
    14    11    12   ar
    15    11    19   ar
    16    12    20   ar
    17    13    19   ar
    18    13    21   ar
    19    14    25    1
    20    15    16    1
    21    15    27    1
    22    17    22    1
    23    18    26    1
    24    19    32    1
    25    20    21   ar
    26    20    24    1
    27    21    22    1
    28    22    23    2
    29    23    25    1
    30    23    27    1
    31    24    27   am
    32    24    29    2
    33    25    30    2
    34    26    28    1
    35    26    31    2
    36     1    33    1
    37     1    34    1
    38     1    35    1
    39     2    36    1
    40     3    37    1
    41     4    38    1
    42     5    39    1
    43     6    40    1
    44     7    41    1
    45     8    42    1
    46     9    43    1
    47    10    44    1
    48    11    45    1
    49    12    46    1
    50    13    47    1
    51    14    48    1
    52    14    49    1
    53    15    50    1
    54    15    51    1
@<TRIPOS>SUBSTRUCTURE
     1 <0>         1 TEMP              0 ****  ****    0 ROOT

