
##########                                Name:        K55_922_2ZNP
##########                    Molecular_Weight:             468.468
##########                DOCK_Rotatable_Bonds:                  13
##########                       Formal_Charge:             -1.0004
##########                     HBond_Acceptors:                   9
##########                        HBond_Donors:                   1
##########                         Heavy_Atoms:                  33
##########                            HA_RMSDs:               0.340
##########                            HA_RMSDh:               0.340
##########                            HA_RMSDm:               0.340
##########                          Grid_Score:           13.371815
##########                     Grid_vdw_energy:          -44.551525
##########                      Grid_es_energy:           57.923340
##########           Internal_energy_repulsive:           41.399567

@<TRIPOS>MOLECULE
K55_922_2ZNP
 59 60 1 0 0
SMALL
USER_CHARGES


@<TRIPOS>ATOM
      1 C1         13.5777    7.3915   34.5717 C.3     1  <0>        -0.0652
      2 C2         20.1216   -0.7686   38.2493 C.3     1  <0>        -0.0647
      3 C3         18.8700    2.6762   35.5835 C.ar    1  <0>        -0.0561
      4 C4         11.8286    2.4947   42.1686 C.ar    1  <0>        -0.0492
      5 C5         12.0441    2.1670   40.8313 C.ar    1  <0>        -0.0463
      6 C6         18.0884    3.8210   35.7158 C.ar    1  <0>        -0.0311
      7 C7         16.9699    1.3279   36.2758 C.ar    1  <0>        -0.0514
      8 C8         13.3431    4.3927   41.9010 C.ar    1  <0>        -0.0141
      9 C9         14.9630    7.7591   35.0227 C.3     1  <0>        -0.0538
     10 C10        19.1464   -1.6722   37.4889 C.3     1  <0>        -0.0477
     11 C11        15.2684    6.9685   36.2388 C.3     1  <0>        -0.0292
     12 C12        16.4347    6.0549   36.0029 C.3     1  <0>         0.0542
     13 C13        19.2205    0.2115   35.7333 C.3     1  <0>        -0.0197
     14 C14        14.7343    2.3627   36.8254 C.3     1  <0>         0.0396
     15 C15        18.3316    1.4120   35.8648 C.ar    1  <0>        -0.0463
     16 C16        12.4722    3.6105   42.7285 C.ar    1  <0>         0.0576
     17 C17        12.8977    2.9415   40.0304 C.ar    1  <0>         0.0718
     18 C18        16.7523    3.7240   36.1247 C.ar    1  <0>         0.0808
     19 C19        16.1725    2.5021   36.4014 C.ar    1  <0>        -0.0001
     20 C20        13.5440    4.0413   40.5459 C.ar    1  <0>         0.1360
     21 C21        18.6359   -1.1464   36.1051 C.3     1  <0>         0.0023
     22 C22        13.0898    2.5743   38.6669 C.2     1  <0>         0.2471
     23 C23        19.0638   -2.1241   35.0497 C.2     1  <0>         0.0451
     24 C24        12.2271    3.9678   44.1701 C.3     1  <0>         0.4175
     25 N1         14.3970    2.7071   38.1819 N.am    1  <0>        -0.3071
     26 O1         20.3705   -2.0054   34.7711 O.co2   1  <0>        -0.5495
     27 O2         12.1394    2.1683   38.0359 O.2     1  <0>        -0.2701
     28 O3         18.3730   -2.9601   34.4920 O.co2   1  <0>        -0.5495
     29 O4         15.9361    4.7549   36.2758 O.3     1  <0>        -0.3444
     30 F1         14.3672    4.7910   39.7811 F       1  <0>        -0.2047
     31 F2         10.9450    4.2351   44.4112 F       1  <0>        -0.1659
     32 F3         12.9204    5.0782   44.5835 F       1  <0>        -0.1659
     33 F4         12.5132    2.9931   45.0191 F       1  <0>        -0.1659
     34 H1         13.3217    7.9640   33.6680 H       1  <0>         0.0230
     35 H2         13.5388    6.3154   34.3471 H       1  <0>         0.0230
     36 H3         12.8581    7.6258   35.3700 H       1  <0>         0.0230
     37 H4         20.4025   -1.2483   39.1985 H       1  <0>         0.0230
     38 H5         21.0227   -0.6069   37.6396 H       1  <0>         0.0230
     39 H6         19.6399    0.1985   38.4559 H       1  <0>         0.0230
     40 H7         19.8975    2.7624   35.2621 H       1  <0>         0.0621
     41 H8         11.1676    1.8916   42.7736 H       1  <0>         0.0623
     42 H9         11.5484    1.3067   40.4062 H       1  <0>         0.0626
     43 H10        18.5151    4.7898   35.5017 H       1  <0>         0.0643
     44 H11        16.5371    0.3629   36.4947 H       1  <0>         0.0624
     45 H12        13.8478    5.2537   42.3139 H       1  <0>         0.0652
     46 H13        15.6908    7.5285   34.2307 H       1  <0>         0.0263
     47 H14        15.0125    8.8343   35.2499 H       1  <0>         0.0263
     48 H15        19.6645   -2.6246   37.3029 H       1  <0>         0.0269
     49 H16        18.2631   -1.8084   38.1301 H       1  <0>         0.0269
     50 H17        15.5128    7.6565   37.0615 H       1  <0>         0.0287
     51 H18        14.3880    6.3646   36.5041 H       1  <0>         0.0287
     52 H19        16.7937    6.1314   34.9659 H       1  <0>         0.0565
     53 H20        17.2739    6.3046   36.6689 H       1  <0>         0.0565
     54 H21        19.5194    0.1509   34.6765 H       1  <0>         0.0319
     55 H22        20.0822    0.3793   36.3960 H       1  <0>         0.0319
     56 H23        14.1456    3.0254   36.1739 H       1  <0>         0.0512
     57 H24        14.4645    1.3050   36.6899 H       1  <0>         0.0512
     58 H25        17.5433   -1.0404   36.1747 H       1  <0>         0.0363
     59 H26        15.1122    3.0488   38.7917 H       1  <0>         0.1493
@<TRIPOS>BOND
     1     1     9    1
     2     2    10    1
     3     3     6   ar
     4     3    15   ar
     5     4     5   ar
     6     4    16   ar
     7     5    17   ar
     8     6    18   ar
     9     7    15   ar
    10     7    19   ar
    11     8    16   ar
    12     8    20   ar
    13     9    11    1
    14    10    21    1
    15    11    12    1
    16    12    29    1
    17    13    15    1
    18    13    21    1
    19    14    19    1
    20    14    25    1
    21    16    24    1
    22    17    20   ar
    23    17    22    1
    24    18    19   ar
    25    18    29    1
    26    20    30    1
    27    21    23    1
    28    22    25   am
    29    22    27    2
    30    23    26    1
    31    23    28    2
    32    24    31    1
    33    24    32    1
    34    24    33    1
    35     1    34    1
    36     1    35    1
    37     1    36    1
    38     2    37    1
    39     2    38    1
    40     2    39    1
    41     3    40    1
    42     4    41    1
    43     5    42    1
    44     6    43    1
    45     7    44    1
    46     8    45    1
    47     9    46    1
    48     9    47    1
    49    10    48    1
    50    10    49    1
    51    11    50    1
    52    11    51    1
    53    12    52    1
    54    12    53    1
    55    13    54    1
    56    13    55    1
    57    14    56    1
    58    14    57    1
    59    21    58    1
    60    25    59    1
@<TRIPOS>SUBSTRUCTURE
     1 <0>         1 TEMP              0 ****  ****    0 ROOT

