
##########                                Name:        T4B_293_2NNQ
##########                    Molecular_Weight:             473.551
##########                DOCK_Rotatable_Bonds:                   8
##########                       Formal_Charge:             -0.9997
##########                     HBond_Acceptors:                   5
##########                        HBond_Donors:                   0
##########                         Heavy_Atoms:                  36
##########                            HA_RMSDs:               0.872
##########                            HA_RMSDh:               0.872
##########                            HA_RMSDm:               0.806
##########                          Grid_Score:            3.019226
##########                     Grid_vdw_energy:          -50.584984
##########                      Grid_es_energy:           53.604210
##########           Internal_energy_repulsive:           22.117657

@<TRIPOS>MOLECULE
T4B_293_2NNQ
 61 65 1 0 0
SMALL
USER_CHARGES


@<TRIPOS>ATOM
      1 C1          3.0230    7.3512   14.5158 C.3     1  <0>        -0.0600
      2 C2          2.2650    3.2094   19.3083 C.ar    1  <0>        -0.0617
      3 C3          6.3263    7.8214   22.6270 C.ar    1  <0>        -0.0617
      4 C4          3.5961    3.5145   18.9111 C.ar    1  <0>        -0.0612
      5 C5          1.2668    4.2212   19.3108 C.ar    1  <0>        -0.0612
      6 C6          5.0741    7.1573   22.4861 C.ar    1  <0>        -0.0611
      7 C7          6.8428    8.6145   21.5665 C.ar    1  <0>        -0.0611
      8 C8          3.0063   12.3894   14.1621 C.ar    1  <0>        -0.0611
      9 C9          1.8618   11.6329   14.5452 C.ar    1  <0>        -0.0599
     10 C10         7.7188   11.6068   17.6244 C.ar    1  <0>        -0.0587
     11 C11         3.9363    4.8347   18.5112 C.ar    1  <0>        -0.0539
     12 C12         1.5981    5.5420   18.9180 C.ar    1  <0>        -0.0539
     13 C13         4.3320    7.2840   21.2785 C.ar    1  <0>        -0.0525
     14 C14         6.1037    8.7441   20.3546 C.ar    1  <0>        -0.0525
     15 C15         4.2791   12.1099   14.7277 C.ar    1  <0>        -0.0522
     16 C16         1.9858   10.5879   15.4975 C.ar    1  <0>        -0.0379
     17 C17         6.4796   11.8674   16.9587 C.ar    1  <0>        -0.0538
     18 C18         8.2529   10.2859   17.6569 C.ar    1  <0>        -0.0316
     19 C19         6.3119    9.4814   16.3482 C.ar    1  <0>        -0.0239
     20 C20         2.1776    7.2896   15.7935 C.3     1  <0>        -0.0146
     21 C21         7.2892    6.8010   17.4310 C.3     1  <0>         0.0934
     22 C22         2.9411    5.8636   18.5119 C.ar    1  <0>        -0.0143
     23 C23         4.8459    8.0811   20.2033 C.ar    1  <0>         0.0025
     24 C24         5.7676   10.8044   16.3209 C.ar    1  <0>        -0.0136
     25 C25         7.5561    9.2161   17.0195 C.ar    1  <0>         0.0772
     26 C26         4.4241   11.0633   15.6898 C.ar    1  <0>         0.0054
     27 C27         3.2623   10.2912   16.0749 C.ar    1  <0>         0.0645
     28 C28         2.9217    7.9311   16.9741 C.2     1  <0>         0.0441
     29 C29         3.2986    7.2786   18.1199 C.2     1  <0>         0.0287
     30 C30         4.0914    8.2717   18.9301 C.2     1  <0>         0.0987
     31 C31         7.0795    5.8791   16.2334 C.2     1  <0>         0.0678
     32 N1          4.1094    9.3889   18.2620 N.2     1  <0>        -0.1742
     33 N2          3.3979    9.2344   17.0315 N.pl3   1  <0>        -0.1954
     34 O1          6.4470    4.7336   16.3853 O.co2   1  <0>        -0.5474
     35 O2          7.4843    6.2062   15.1198 O.co2   1  <0>        -0.5474
     36 O3          8.0983    7.9393   17.0438 O.3     1  <0>        -0.3389
     37 H1          2.4696    6.8865   13.6865 H       1  <0>         0.0233
     38 H2          3.2389    8.4013   14.2694 H       1  <0>         0.0233
     39 H3          3.9675    6.8101   14.6748 H       1  <0>         0.0233
     40 H4          2.0114    2.2038   19.6095 H       1  <0>         0.0618
     41 H5          6.8865    7.7217   23.5450 H       1  <0>         0.0618
     42 H6          4.3499    2.7411   18.9135 H       1  <0>         0.0618
     43 H7          0.2570    3.9838   19.6117 H       1  <0>         0.0618
     44 H8          4.6875    6.5570   23.2965 H       1  <0>         0.0618
     45 H9          7.7921    9.1173   21.6787 H       1  <0>         0.0618
     46 H10         2.9055   13.1822   13.4355 H       1  <0>         0.0618
     47 H11         0.8984   11.8547   14.1105 H       1  <0>         0.0618
     48 H12         8.2518   12.4143   18.1044 H       1  <0>         0.0619
     49 H13         4.9471    5.0622   18.2062 H       1  <0>         0.0624
     50 H14         0.8395    6.3107   18.9235 H       1  <0>         0.0624
     51 H15         3.3826    6.7802   21.1721 H       1  <0>         0.0624
     52 H16         6.4953    9.3454   19.5475 H       1  <0>         0.0624
     53 H17         5.1399   12.6901   14.4296 H       1  <0>         0.0624
     54 H18         1.1168   10.0158   15.7869 H       1  <0>         0.0637
     55 H19         6.0806   12.8708   16.9378 H       1  <0>         0.0624
     56 H20         9.1867   10.0942   18.1647 H       1  <0>         0.0643
     57 H21         5.7840    8.6750   15.8607 H       1  <0>         0.0649
     58 H22         1.2357    7.8326   15.6262 H       1  <0>         0.0324
     59 H23         1.9663    6.2369   16.0326 H       1  <0>         0.0324
     60 H24         6.3126    7.1552   17.7925 H       1  <0>         0.0627
     61 H25         7.8009    6.2465   18.2315 H       1  <0>         0.0627
@<TRIPOS>BOND
     1     1    20    1
     2     2     4   ar
     3     2     5   ar
     4     3     6   ar
     5     3     7   ar
     6     4    11   ar
     7     5    12   ar
     8     6    13   ar
     9     7    14   ar
    10     8     9   ar
    11     8    15   ar
    12     9    16   ar
    13    10    17   ar
    14    10    18   ar
    15    11    22   ar
    16    12    22   ar
    17    13    23   ar
    18    14    23   ar
    19    15    26   ar
    20    16    27   ar
    21    17    24   ar
    22    18    25   ar
    23    19    24   ar
    24    19    25   ar
    25    20    28    1
    26    21    31    1
    27    21    36    1
    28    22    29    1
    29    23    30    1
    30    24    26    1
    31    25    36    1
    32    26    27   ar
    33    27    33    1
    34    28    29    2
    35    28    33    1
    36    29    30    1
    37    30    32    2
    38    31    34    1
    39    31    35    2
    40    32    33    1
    41     1    37    1
    42     1    38    1
    43     1    39    1
    44     2    40    1
    45     3    41    1
    46     4    42    1
    47     5    43    1
    48     6    44    1
    49     7    45    1
    50     8    46    1
    51     9    47    1
    52    10    48    1
    53    11    49    1
    54    12    50    1
    55    13    51    1
    56    14    52    1
    57    15    53    1
    58    16    54    1
    59    17    55    1
    60    18    56    1
    61    19    57    1
    62    20    58    1
    63    20    59    1
    64    21    60    1
    65    21    61    1
@<TRIPOS>SUBSTRUCTURE
     1 <0>         1 TEMP              0 ****  ****    0 ROOT

