
##########                                Name:        T4B_293_2NNQ
##########                    Molecular_Weight:             473.551
##########                DOCK_Rotatable_Bonds:                   8
##########                       Formal_Charge:             -0.9997
##########                     HBond_Acceptors:                   5
##########                        HBond_Donors:                   0
##########                         Heavy_Atoms:                  36
##########                            HA_RMSDs:               0.507
##########                            HA_RMSDh:               0.507
##########                            HA_RMSDm:               0.507
##########                          Grid_Score:           -0.572083
##########                     Grid_vdw_energy:          -53.923206
##########                      Grid_es_energy:           53.351124
##########           Internal_energy_repulsive:           19.772655

@<TRIPOS>MOLECULE
T4B_293_2NNQ
 61 65 1 0 0
SMALL
USER_CHARGES


@<TRIPOS>ATOM
      1 C1          3.4182    6.8021   14.7556 C.3     1  <0>        -0.0600
      2 C2          1.7887    2.8979   19.0693 C.ar    1  <0>        -0.0617
      3 C3          5.7672    7.0349   23.0555 C.ar    1  <0>        -0.0617
      4 C4          3.1856    3.1538   18.9939 C.ar    1  <0>        -0.0612
      5 C5          0.8541    3.9489   18.8640 C.ar    1  <0>        -0.0612
      6 C6          4.4916    6.4787   22.7512 C.ar    1  <0>        -0.0611
      7 C7          6.4509    7.8323   22.0979 C.ar    1  <0>        -0.0611
      8 C8          3.6860   12.2463   14.5665 C.ar    1  <0>        -0.0611
      9 C9          2.4435   11.6112   14.8528 C.ar    1  <0>        -0.0599
     10 C10         7.9081   10.6241   18.4501 C.ar    1  <0>        -0.0587
     11 C11         3.6565    4.4638   18.7098 C.ar    1  <0>        -0.0539
     12 C12         1.3147    5.2598   18.5850 C.ar    1  <0>        -0.0539
     13 C13         3.8940    6.7186   21.4822 C.ar    1  <0>        -0.0525
     14 C14         5.8569    8.0749   20.8250 C.ar    1  <0>        -0.0525
     15 C15         4.8862   11.7925   15.1763 C.ar    1  <0>        -0.0522
     16 C16         2.3957   10.5140   15.7517 C.ar    1  <0>        -0.0379
     17 C17         6.7464   11.0785   17.7495 C.ar    1  <0>        -0.0538
     18 C18         8.4573    9.3386   18.1725 C.ar    1  <0>        -0.0316
     19 C19         6.6875    8.9599   16.4837 C.ar    1  <0>        -0.0239
     20 C20         2.3557    7.1432   15.8071 C.3     1  <0>        -0.0146
     21 C21         7.5705    6.0862   16.7772 C.3     1  <0>         0.0934
     22 C22         2.7260    5.5318   18.5039 C.ar    1  <0>        -0.0143
     23 C23         4.5770    7.5208   20.5098 C.ar    1  <0>         0.0025
     24 C24         6.1276   10.2462   16.7655 C.ar    1  <0>        -0.0136
     25 C25         7.8537    8.4995   17.1888 C.ar    1  <0>         0.0772
     26 C26         4.8585   10.6908   16.0860 C.ar    1  <0>         0.0054
     27 C27         3.5969   10.0423   16.3725 C.ar    1  <0>         0.0645
     28 C28         3.0079    7.6701   17.0940 C.2     1  <0>         0.0441
     29 C29         3.2152    6.9359   18.2335 C.2     1  <0>         0.0287
     30 C30         3.9788    7.8282   19.1778 C.2     1  <0>         0.0987
     31 C31         7.2236    5.8653   15.3079 C.2     1  <0>         0.0678
     32 N1          4.1417    8.9734   18.5807 N.2     1  <0>        -0.1742
     33 N2          3.5590    8.9318   17.2757 N.pl3   1  <0>        -0.1954
     34 O1          6.9414    4.6549   14.8713 O.co2   1  <0>        -0.5474
     35 O2          7.1898    6.8152   14.5285 O.co2   1  <0>        -0.5474
     36 O3          8.4111    7.2585   16.9167 O.3     1  <0>        -0.3389
     37 H1          2.9271    6.4277   13.8453 H       1  <0>         0.0233
     38 H2          3.9981    7.7052   14.5141 H       1  <0>         0.0233
     39 H3          4.0921    6.0288   15.1530 H       1  <0>         0.0233
     40 H4          1.4362    1.8998   19.2836 H       1  <0>         0.0618
     41 H5          6.2174    6.8496   24.0196 H       1  <0>         0.0618
     42 H6          3.8900    2.3507   19.1528 H       1  <0>         0.0618
     43 H7         -0.2057    3.7488   18.9207 H       1  <0>         0.0618
     44 H8          3.9776    5.8745   23.4841 H       1  <0>         0.0618
     45 H9          7.4173    8.2529   22.3340 H       1  <0>         0.0618
     46 H10         3.7159   13.0796   13.8801 H       1  <0>         0.0618
     47 H11         1.5366   11.9652   14.3852 H       1  <0>         0.0618
     48 H12         8.3708   11.2578   19.1923 H       1  <0>         0.0619
     49 H13         4.7179    4.6540   18.6492 H       1  <0>         0.0624
     50 H14         0.6037    6.0583   18.4324 H       1  <0>         0.0624
     51 H15         2.9268    6.2967   21.2518 H       1  <0>         0.0624
     52 H16         6.3756    8.6795   20.0959 H       1  <0>         0.0624
     53 H17         5.8225   12.2817   14.9517 H       1  <0>         0.0624
     54 H18         1.4526   10.0343   15.9678 H       1  <0>         0.0637
     55 H19         6.3354   12.0538   17.9647 H       1  <0>         0.0624
     56 H20         9.3318    8.9990   18.7076 H       1  <0>         0.0643
     57 H21         6.2308    8.3294   15.7352 H       1  <0>         0.0649
     58 H22         1.6864    7.9166   15.4022 H       1  <0>         0.0324
     59 H23         1.7807    6.2356   16.0427 H       1  <0>         0.0324
     60 H24         6.6439    6.2328   17.3515 H       1  <0>         0.0627
     61 H25         8.1075    5.2059   17.1604 H       1  <0>         0.0627
@<TRIPOS>BOND
     1     1    20    1
     2     2     4   ar
     3     2     5   ar
     4     3     6   ar
     5     3     7   ar
     6     4    11   ar
     7     5    12   ar
     8     6    13   ar
     9     7    14   ar
    10     8     9   ar
    11     8    15   ar
    12     9    16   ar
    13    10    17   ar
    14    10    18   ar
    15    11    22   ar
    16    12    22   ar
    17    13    23   ar
    18    14    23   ar
    19    15    26   ar
    20    16    27   ar
    21    17    24   ar
    22    18    25   ar
    23    19    24   ar
    24    19    25   ar
    25    20    28    1
    26    21    31    1
    27    21    36    1
    28    22    29    1
    29    23    30    1
    30    24    26    1
    31    25    36    1
    32    26    27   ar
    33    27    33    1
    34    28    29    2
    35    28    33    1
    36    29    30    1
    37    30    32    2
    38    31    34    1
    39    31    35    2
    40    32    33    1
    41     1    37    1
    42     1    38    1
    43     1    39    1
    44     2    40    1
    45     3    41    1
    46     4    42    1
    47     5    43    1
    48     6    44    1
    49     7    45    1
    50     8    46    1
    51     9    47    1
    52    10    48    1
    53    11    49    1
    54    12    50    1
    55    13    51    1
    56    14    52    1
    57    15    53    1
    58    16    54    1
    59    17    55    1
    60    18    56    1
    61    19    57    1
    62    20    58    1
    63    20    59    1
    64    21    60    1
    65    21    61    1
@<TRIPOS>SUBSTRUCTURE
     1 <0>         1 TEMP              0 ****  ****    0 ROOT

