
##########                                Name:        T4B_293_2NNQ
##########                    Molecular_Weight:             473.551
##########                DOCK_Rotatable_Bonds:                   8
##########                       Formal_Charge:             -0.9997
##########                     HBond_Acceptors:                   5
##########                        HBond_Donors:                   0
##########                         Heavy_Atoms:                  36
##########                            HA_RMSDs:               0.385
##########                            HA_RMSDh:               0.385
##########                            HA_RMSDm:               0.385
##########                          Grid_Score:            2.772915
##########                     Grid_vdw_energy:          -51.985245
##########                      Grid_es_energy:           54.758160
##########           Internal_energy_repulsive:           14.133350

@<TRIPOS>MOLECULE
T4B_293_2NNQ
 61 65 1 0 0
SMALL
USER_CHARGES


@<TRIPOS>ATOM
      1 C1          3.1711    6.7862   14.8850 C.3     1  <0>        -0.0600
      2 C2          1.6114    3.1995   19.0503 C.ar    1  <0>        -0.0617
      3 C3          5.7088    7.2678   22.9938 C.ar    1  <0>        -0.0617
      4 C4          3.0058    3.4741   19.1036 C.ar    1  <0>        -0.0612
      5 C5          0.6891    4.2288   18.7183 C.ar    1  <0>        -0.0612
      6 C6          4.4747    6.6372   22.6648 C.ar    1  <0>        -0.0611
      7 C7          6.3315    8.1538   22.0731 C.ar    1  <0>        -0.0611
      8 C8          3.5083   12.5643   14.5865 C.ar    1  <0>        -0.0611
      9 C9          2.2568   12.0268   15.0035 C.ar    1  <0>        -0.0599
     10 C10         8.0435   10.6013   17.8778 C.ar    1  <0>        -0.0587
     11 C11         3.4867    4.7811   18.8224 C.ar    1  <0>        -0.0539
     12 C12         1.1593    5.5366   18.4410 C.ar    1  <0>        -0.0539
     13 C13         3.8575    6.8911   21.4079 C.ar    1  <0>        -0.0525
     14 C14         5.7177    8.4109   20.8125 C.ar    1  <0>        -0.0525
     15 C15         4.7268   12.0064   15.0579 C.ar    1  <0>        -0.0522
     16 C16         2.2180   10.9233   15.8952 C.ar    1  <0>        -0.0379
     17 C17         6.8520   11.1516   17.3083 C.ar    1  <0>        -0.0538
     18 C18         8.3941    9.2415   17.6348 C.ar    1  <0>        -0.0316
     19 C19         6.3643    8.9789   16.2425 C.ar    1  <0>        -0.0239
     20 C20         2.1574    7.4645   15.8142 C.3     1  <0>        -0.0146
     21 C21         6.9317    6.0505   16.5870 C.3     1  <0>         0.0934
     22 C22         2.5683    5.8274   18.4895 C.ar    1  <0>        -0.0143
     23 C23         4.4791    7.7825   20.4727 C.ar    1  <0>         0.0025
     24 C24         6.0038   10.3412   16.4911 C.ar    1  <0>        -0.0136
     25 C25         7.5602    8.4224   16.8163 C.ar    1  <0>         0.0772
     26 C26         4.7087   10.8966   15.9580 C.ar    1  <0>         0.0054
     27 C27         3.4372   10.3472   16.3772 C.ar    1  <0>         0.0645
     28 C28         2.8410    7.9747   17.0915 C.2     1  <0>         0.0441
     29 C29         3.0650    7.2291   18.2204 C.2     1  <0>         0.0287
     30 C30         3.8563    8.1064   19.1559 C.2     1  <0>         0.0987
     31 C31         6.9044    5.3436   15.2351 C.2     1  <0>         0.0678
     32 N1          4.0176    9.2550   18.5649 N.2     1  <0>        -0.1742
     33 N2          3.4076    9.2296   17.2720 N.pl3   1  <0>        -0.1954
     34 O1          6.2091    4.2351   15.0841 O.co2   1  <0>        -0.5474
     35 O2          7.5163    5.8119   14.2774 O.co2   1  <0>        -0.5474
     36 O3          7.9248    7.1059   16.5740 O.3     1  <0>        -0.3389
     37 H1          2.6582    6.4302   13.9794 H       1  <0>         0.0233
     38 H2          3.9515    7.5088   14.6041 H       1  <0>         0.0233
     39 H3          3.6312    5.9330   15.4050 H       1  <0>         0.0233
     40 H4          1.2514    2.2038   19.2631 H       1  <0>         0.0618
     41 H5          6.1741    7.0716   23.9485 H       1  <0>         0.0618
     42 H6          3.7006    2.6875   19.3584 H       1  <0>         0.0618
     43 H7         -0.3687    4.0145   18.6775 H       1  <0>         0.0618
     44 H8          4.0071    5.9658   23.3697 H       1  <0>         0.0618
     45 H9          7.2664    8.6307   22.3278 H       1  <0>         0.0618
     46 H10         3.5310   13.4030   13.9063 H       1  <0>         0.0618
     47 H11         1.3362   12.4596   14.6407 H       1  <0>         0.0618
     48 H12         8.6799   11.2189   18.4943 H       1  <0>         0.0619
     49 H13         4.5465    4.9854   18.8597 H       1  <0>         0.0624
     50 H14         0.4573    6.3188   18.1921 H       1  <0>         0.0624
     51 H15         2.9219    6.4126   21.1588 H       1  <0>         0.0624
     52 H16         6.1900    9.0829   20.1113 H       1  <0>         0.0624
     53 H17         5.6698   12.4222   14.7349 H       1  <0>         0.0624
     54 H18         1.2681   10.5177   16.2105 H       1  <0>         0.0637
     55 H19         6.5922   12.1829   17.4964 H       1  <0>         0.0624
     56 H20         9.2925    8.8302   18.0709 H       1  <0>         0.0643
     57 H21         5.7331    8.3633   15.6188 H       1  <0>         0.0649
     58 H22         1.7022    8.3160   15.2871 H       1  <0>         0.0324
     59 H23         1.3810    6.7357   16.0901 H       1  <0>         0.0324
     60 H24         5.9419    6.4851   16.7901 H       1  <0>         0.0627
     61 H25         7.1844    5.3231   17.3726 H       1  <0>         0.0627
@<TRIPOS>BOND
     1     1    20    1
     2     2     4   ar
     3     2     5   ar
     4     3     6   ar
     5     3     7   ar
     6     4    11   ar
     7     5    12   ar
     8     6    13   ar
     9     7    14   ar
    10     8     9   ar
    11     8    15   ar
    12     9    16   ar
    13    10    17   ar
    14    10    18   ar
    15    11    22   ar
    16    12    22   ar
    17    13    23   ar
    18    14    23   ar
    19    15    26   ar
    20    16    27   ar
    21    17    24   ar
    22    18    25   ar
    23    19    24   ar
    24    19    25   ar
    25    20    28    1
    26    21    31    1
    27    21    36    1
    28    22    29    1
    29    23    30    1
    30    24    26    1
    31    25    36    1
    32    26    27   ar
    33    27    33    1
    34    28    29    2
    35    28    33    1
    36    29    30    1
    37    30    32    2
    38    31    34    1
    39    31    35    2
    40    32    33    1
    41     1    37    1
    42     1    38    1
    43     1    39    1
    44     2    40    1
    45     3    41    1
    46     4    42    1
    47     5    43    1
    48     6    44    1
    49     7    45    1
    50     8    46    1
    51     9    47    1
    52    10    48    1
    53    11    49    1
    54    12    50    1
    55    13    51    1
    56    14    52    1
    57    15    53    1
    58    16    54    1
    59    17    55    1
    60    18    56    1
    61    19    57    1
    62    20    58    1
    63    20    59    1
    64    21    60    1
    65    21    61    1
@<TRIPOS>SUBSTRUCTURE
     1 <0>         1 TEMP              0 ****  ****    0 ROOT

