
##########                                Name:        T4B_293_2NNQ
##########                    Molecular_Weight:             473.551
##########                DOCK_Rotatable_Bonds:                   8
##########                       Formal_Charge:             -0.9997
##########                     HBond_Acceptors:                   5
##########                        HBond_Donors:                   0
##########                         Heavy_Atoms:                  36
##########                            HA_RMSDs:               0.406
##########                            HA_RMSDh:               0.406
##########                            HA_RMSDm:               0.406
##########                          Grid_Score:            3.877041
##########                     Grid_vdw_energy:          -51.417061
##########                      Grid_es_energy:           55.294102
##########           Internal_energy_repulsive:           12.908413

@<TRIPOS>MOLECULE
T4B_293_2NNQ
 61 65 1 0 0
SMALL
USER_CHARGES


@<TRIPOS>ATOM
      1 C1          3.4263    7.3565   14.6974 C.3     1  <0>        -0.0600
      2 C2          1.5642    3.1866   18.9487 C.ar    1  <0>        -0.0617
      3 C3          5.7125    6.9959   23.0894 C.ar    1  <0>        -0.0617
      4 C4          2.9664    3.4023   19.0487 C.ar    1  <0>        -0.0612
      5 C5          0.6950    4.2595   18.6117 C.ar    1  <0>        -0.0612
      6 C6          4.3350    6.7251   22.8486 C.ar    1  <0>        -0.0611
      7 C7          6.5192    7.5776   22.0739 C.ar    1  <0>        -0.0611
      8 C8          3.9825   12.5485   14.7378 C.ar    1  <0>        -0.0611
      9 C9          2.6979   12.0366   15.0796 C.ar    1  <0>        -0.0599
     10 C10         8.2741   10.3988   18.2421 C.ar    1  <0>        -0.0587
     11 C11         3.5083    4.6936   18.8094 C.ar    1  <0>        -0.0539
     12 C12         1.2261    5.5521   18.3760 C.ar    1  <0>        -0.0539
     13 C13         3.7578    7.0356   21.5854 C.ar    1  <0>        -0.0525
     14 C14         5.9461    7.8898   20.8066 C.ar    1  <0>        -0.0525
     15 C15         5.1605   11.9508   15.2606 C.ar    1  <0>        -0.0522
     16 C16         2.5852   10.9190   15.9470 C.ar    1  <0>        -0.0379
     17 C17         7.1283   10.9914   17.6235 C.ar    1  <0>        -0.0538
     18 C18         8.6176    9.0430   17.9682 C.ar    1  <0>        -0.0316
     19 C19         6.6727    8.8697   16.4467 C.ar    1  <0>        -0.0239
     20 C20         2.3879    7.4857   15.8181 C.3     1  <0>        -0.0146
     21 C21         7.2214    5.8831   16.9579 C.3     1  <0>         0.0934
     22 C22         2.6436    5.7834   18.4720 C.ar    1  <0>        -0.0143
     23 C23         4.5643    7.6215   20.5550 C.ar    1  <0>         0.0025
     24 C24         6.3191   10.2278   16.7258 C.ar    1  <0>        -0.0136
     25 C25         7.8225    8.2705   17.0697 C.ar    1  <0>         0.0772
     26 C26         5.0678   10.8262   16.1374 C.ar    1  <0>         0.0054
     27 C27         3.7629   10.3029   16.4801 C.ar    1  <0>         0.0645
     28 C28         3.0486    7.9436   17.1269 C.2     1  <0>         0.0441
     29 C29         3.2048    7.1685   18.2474 C.2     1  <0>         0.0287
     30 C30         3.9991    7.9952   19.2255 C.2     1  <0>         0.0987
     31 C31         6.8221    5.3344   15.5913 C.2     1  <0>         0.0678
     32 N1          4.2259    9.1472   18.6631 N.2     1  <0>        -0.1742
     33 N2          3.6587    9.1708   17.3509 N.pl3   1  <0>        -0.1954
     34 O1          5.9517    4.3496   15.5043 O.co2   1  <0>        -0.5474
     35 O2          7.2969    5.8176   14.5655 O.co2   1  <0>        -0.5474
     36 O3          8.1807    6.9578   16.7990 O.3     1  <0>        -0.3389
     37 H1          2.9295    7.0280   13.7726 H       1  <0>         0.0233
     38 H2          3.9069    8.3315   14.5288 H       1  <0>         0.0233
     39 H3          4.1878    6.6173   14.9868 H       1  <0>         0.0233
     40 H4          1.1578    2.2025   19.1297 H       1  <0>         0.0618
     41 H5          6.1466    6.7578   24.0493 H       1  <0>         0.0618
     42 H6          3.6206    2.5828   19.3071 H       1  <0>         0.0618
     43 H7         -0.3689    4.0899   18.5353 H       1  <0>         0.0618
     44 H8          3.7281    6.2837   23.6253 H       1  <0>         0.0618
     45 H9          7.5628    7.7823   22.2618 H       1  <0>         0.0618
     46 H10         4.0616   13.3982   14.0757 H       1  <0>         0.0618
     47 H11         1.8086   12.4996   14.6782 H       1  <0>         0.0618
     48 H12         8.8813   10.9811   18.9195 H       1  <0>         0.0619
     49 H13         4.5739    4.8533   18.8822 H       1  <0>         0.0624
     50 H14         0.5643    6.3673   18.1232 H       1  <0>         0.0624
     51 H15         2.7133    6.8300   21.4032 H       1  <0>         0.0624
     52 H16         6.5578    8.3308   20.0336 H       1  <0>         0.0624
     53 H17         6.1291   12.3475   14.9945 H       1  <0>         0.0624
     54 H18         1.6103   10.5328   16.2053 H       1  <0>         0.0637
     55 H19         6.8737   12.0194   17.8355 H       1  <0>         0.0624
     56 H20         9.4812    8.5994   18.4415 H       1  <0>         0.0643
     57 H21         6.0713    8.2895   15.7626 H       1  <0>         0.0649
     58 H22         1.6306    8.2262   15.5211 H       1  <0>         0.0324
     59 H23         1.9123    6.5072   15.9802 H       1  <0>         0.0324
     60 H24         6.3273    6.2667   17.4710 H       1  <0>         0.0627
     61 H25         7.6734    5.0775   17.5552 H       1  <0>         0.0627
@<TRIPOS>BOND
     1     1    20    1
     2     2     4   ar
     3     2     5   ar
     4     3     6   ar
     5     3     7   ar
     6     4    11   ar
     7     5    12   ar
     8     6    13   ar
     9     7    14   ar
    10     8     9   ar
    11     8    15   ar
    12     9    16   ar
    13    10    17   ar
    14    10    18   ar
    15    11    22   ar
    16    12    22   ar
    17    13    23   ar
    18    14    23   ar
    19    15    26   ar
    20    16    27   ar
    21    17    24   ar
    22    18    25   ar
    23    19    24   ar
    24    19    25   ar
    25    20    28    1
    26    21    31    1
    27    21    36    1
    28    22    29    1
    29    23    30    1
    30    24    26    1
    31    25    36    1
    32    26    27   ar
    33    27    33    1
    34    28    29    2
    35    28    33    1
    36    29    30    1
    37    30    32    2
    38    31    34    1
    39    31    35    2
    40    32    33    1
    41     1    37    1
    42     1    38    1
    43     1    39    1
    44     2    40    1
    45     3    41    1
    46     4    42    1
    47     5    43    1
    48     6    44    1
    49     7    45    1
    50     8    46    1
    51     9    47    1
    52    10    48    1
    53    11    49    1
    54    12    50    1
    55    13    51    1
    56    14    52    1
    57    15    53    1
    58    16    54    1
    59    17    55    1
    60    18    56    1
    61    19    57    1
    62    20    58    1
    63    20    59    1
    64    21    60    1
    65    21    61    1
@<TRIPOS>SUBSTRUCTURE
     1 <0>         1 TEMP              0 ****  ****    0 ROOT

