
##########                                Name:        T4B_293_2NNQ
##########                    Molecular_Weight:             473.551
##########                DOCK_Rotatable_Bonds:                   8
##########                       Formal_Charge:             -0.9997
##########                     HBond_Acceptors:                   5
##########                        HBond_Donors:                   0
##########                         Heavy_Atoms:                  36
##########                            HA_RMSDs:              16.885
##########                            HA_RMSDh:              16.248
##########                            HA_RMSDm:              13.997
##########                          Grid_Score:            2.000116
##########                     Grid_vdw_energy:          -17.530020
##########                      Grid_es_energy:           19.530136
##########           Internal_energy_repulsive:           12.511500

@<TRIPOS>MOLECULE
T4B_293_2NNQ
 61 65 1 0 0
SMALL
USER_CHARGES


@<TRIPOS>ATOM
      1 C1         -3.3538   17.3908   16.8871 C.3     1  <0>        -0.0600
      2 C2         -8.0701   18.4229   12.6349 C.ar    1  <0>        -0.0617
      3 C3         -7.7257   24.8621   15.3162 C.ar    1  <0>        -0.0617
      4 C4         -8.3497   18.7186   13.9976 C.ar    1  <0>        -0.0612
      5 C5         -6.7811   18.6805   12.0942 C.ar    1  <0>        -0.0612
      6 C6         -7.6685   23.8905   14.2762 C.ar    1  <0>        -0.0611
      7 C7         -6.8704   24.7566   16.4465 C.ar    1  <0>        -0.0611
      8 C8          0.6475   19.9498   18.3750 C.ar    1  <0>        -0.0611
      9 C9          0.5839   19.7889   16.9611 C.ar    1  <0>        -0.0599
     10 C10        -4.4630   22.6442   20.1490 C.ar    1  <0>        -0.0587
     11 C11        -7.3394   19.2720   14.8293 C.ar    1  <0>        -0.0539
     12 C12        -5.7686   19.2369   12.9150 C.ar    1  <0>        -0.0539
     13 C13        -6.7524   22.8051   14.3644 C.ar    1  <0>        -0.0525
     14 C14        -5.9515   23.6709   16.5401 C.ar    1  <0>        -0.0525
     15 C15        -0.5165   20.2871   19.1164 C.ar    1  <0>        -0.0522
     16 C16        -0.6489   19.9629   16.2799 C.ar    1  <0>        -0.0379
     17 C17        -3.2658   22.2560   19.4686 C.ar    1  <0>        -0.0538
     18 C18        -5.3858   21.6559   20.5995 C.ar    1  <0>        -0.0316
     19 C19        -3.9112   19.8842   19.6971 C.ar    1  <0>        -0.0239
     20 C20        -3.5309   18.0380   15.5084 C.3     1  <0>        -0.0146
     21 C21        -6.2966   18.1316   20.0609 C.3     1  <0>         0.0934
     22 C22        -6.0379   19.5388   14.2965 C.ar    1  <0>        -0.0143
     23 C23        -5.8867   22.6903   15.5015 C.ar    1  <0>         0.0025
     24 C24        -2.9863   20.8735   19.2353 C.ar    1  <0>        -0.0136
     25 C25        -5.1170   20.2720   20.3788 C.ar    1  <0>         0.0772
     26 C26        -1.7667   20.4688   18.4485 C.ar    1  <0>         0.0054
     27 C27        -1.8322   20.3000   17.0128 C.ar    1  <0>         0.0645
     28 C28        -3.8407   19.5364   15.6425 C.2     1  <0>         0.0441
     29 C29        -4.9651   20.1576   15.1625 C.2     1  <0>         0.0287
     30 C30        -4.8868   21.5896   15.6256 C.2     1  <0>         0.0987
     31 C31        -7.1312   17.1546   20.8837 C.2     1  <0>         0.0678
     32 N1         -3.7743   21.7211   16.2887 N.2     1  <0>        -0.1742
     33 N2         -3.0817   20.4711   16.3345 N.pl3   1  <0>        -0.1954
     34 O1         -8.0791   16.4464   20.3048 O.co2   1  <0>        -0.5474
     35 O2         -6.9137   17.0111   22.0850 O.co2   1  <0>        -0.5474
     36 O3         -6.0160   19.3211   20.8399 O.3     1  <0>        -0.3389
     37 H1         -3.1333   16.3201   16.7645 H       1  <0>         0.0233
     38 H2         -2.5218   17.8780   17.4166 H       1  <0>         0.0233
     39 H3         -4.2793   17.5100   17.4696 H       1  <0>         0.0233
     40 H4         -8.8412   18.0006   12.0077 H       1  <0>         0.0618
     41 H5         -8.4231   25.6837   15.2455 H       1  <0>         0.0618
     42 H6         -9.3320   18.5220   14.4012 H       1  <0>         0.0618
     43 H7         -6.5736   18.4525   11.0591 H       1  <0>         0.0618
     44 H8         -8.3210   23.9776   13.4199 H       1  <0>         0.0618
     45 H9         -6.9165   25.4966   17.2318 H       1  <0>         0.0618
     46 H10         1.5884   19.8142   18.8877 H       1  <0>         0.0618
     47 H11         1.4751   19.5342   16.4067 H       1  <0>         0.0618
     48 H12        -4.6683   23.6903   20.3220 H       1  <0>         0.0619
     49 H13        -7.5537   19.4916   15.8648 H       1  <0>         0.0624
     50 H14        -4.7905   19.4352   12.5022 H       1  <0>         0.0624
     51 H15        -6.7094   22.0686   13.5757 H       1  <0>         0.0624
     52 H16        -5.3017   23.5887   17.3987 H       1  <0>         0.0624
     53 H17        -0.4564   20.4065   20.1881 H       1  <0>         0.0624
     54 H18        -0.6948   19.8410   15.2079 H       1  <0>         0.0637
     55 H19        -2.5708   23.0101   19.1299 H       1  <0>         0.0624
     56 H20        -6.2901   21.9550   21.1087 H       1  <0>         0.0643
     57 H21        -3.7022   18.8375   19.5325 H       1  <0>         0.0649
     58 H22        -2.6017   17.9146   14.9327 H       1  <0>         0.0324
     59 H23        -4.3641   17.5454   14.9859 H       1  <0>         0.0324
     60 H24        -5.3488   17.6509   19.7772 H       1  <0>         0.0627
     61 H25        -6.8540   18.4130   19.1553 H       1  <0>         0.0627
@<TRIPOS>BOND
     1     1    20    1
     2     2     4   ar
     3     2     5   ar
     4     3     6   ar
     5     3     7   ar
     6     4    11   ar
     7     5    12   ar
     8     6    13   ar
     9     7    14   ar
    10     8     9   ar
    11     8    15   ar
    12     9    16   ar
    13    10    17   ar
    14    10    18   ar
    15    11    22   ar
    16    12    22   ar
    17    13    23   ar
    18    14    23   ar
    19    15    26   ar
    20    16    27   ar
    21    17    24   ar
    22    18    25   ar
    23    19    24   ar
    24    19    25   ar
    25    20    28    1
    26    21    31    1
    27    21    36    1
    28    22    29    1
    29    23    30    1
    30    24    26    1
    31    25    36    1
    32    26    27   ar
    33    27    33    1
    34    28    29    2
    35    28    33    1
    36    29    30    1
    37    30    32    2
    38    31    34    1
    39    31    35    2
    40    32    33    1
    41     1    37    1
    42     1    38    1
    43     1    39    1
    44     2    40    1
    45     3    41    1
    46     4    42    1
    47     5    43    1
    48     6    44    1
    49     7    45    1
    50     8    46    1
    51     9    47    1
    52    10    48    1
    53    11    49    1
    54    12    50    1
    55    13    51    1
    56    14    52    1
    57    15    53    1
    58    16    54    1
    59    17    55    1
    60    18    56    1
    61    19    57    1
    62    20    58    1
    63    20    59    1
    64    21    60    1
    65    21    61    1
@<TRIPOS>SUBSTRUCTURE
     1 <0>         1 TEMP              0 ****  ****    0 ROOT

