
##########                                Name:        T4B_293_2NNQ
##########                    Molecular_Weight:             473.551
##########                DOCK_Rotatable_Bonds:                   8
##########                       Formal_Charge:             -0.9997
##########                     HBond_Acceptors:                   5
##########                        HBond_Donors:                   0
##########                         Heavy_Atoms:                  36
##########                            HA_RMSDs:               0.363
##########                            HA_RMSDh:               0.363
##########                            HA_RMSDm:               0.363
##########                          Grid_Score:           -2.487144
##########                     Grid_vdw_energy:          -57.077446
##########                      Grid_es_energy:           54.590302
##########           Internal_energy_repulsive:           21.863501

@<TRIPOS>MOLECULE
T4B_293_2NNQ
 61 65 1 0 0
SMALL
USER_CHARGES


@<TRIPOS>ATOM
      1 C1          3.1634    6.7911   14.7190 C.3     1  <0>        -0.0600
      2 C2          1.5925    2.9891   18.9976 C.ar    1  <0>        -0.0617
      3 C3          5.6052    7.1293   22.9474 C.ar    1  <0>        -0.0617
      4 C4          2.9884    3.2545   18.9371 C.ar    1  <0>        -0.0612
      5 C5          0.6530    4.0322   18.7747 C.ar    1  <0>        -0.0612
      6 C6          4.3662    6.5054   22.6243 C.ar    1  <0>        -0.0611
      7 C7          6.2395    7.9943   22.0147 C.ar    1  <0>        -0.0611
      8 C8          3.4127   12.3507   14.4918 C.ar    1  <0>        -0.0611
      9 C9          2.1667   11.7642   14.8560 C.ar    1  <0>        -0.0599
     10 C10         8.0124   10.6817   17.7628 C.ar    1  <0>        -0.0587
     11 C11         3.4534    4.5660   18.6505 C.ar    1  <0>        -0.0539
     12 C12         1.1077    5.3446   18.4929 C.ar    1  <0>        -0.0539
     13 C13         3.7555    6.7450   21.3614 C.ar    1  <0>        -0.0525
     14 C14         5.6323    8.2370   20.7481 C.ar    1  <0>        -0.0525
     15 C15         4.6305   11.8467   15.0220 C.ar    1  <0>        -0.0522
     16 C16         2.1330   10.6654   15.7536 C.ar    1  <0>        -0.0379
     17 C17         6.8227   11.1620   17.1297 C.ar    1  <0>        -0.0538
     18 C18         8.2954    9.2852   17.7948 C.ar    1  <0>        -0.0316
     19 C19         6.2011    8.8441   16.5510 C.ar    1  <0>        -0.0239
     20 C20         2.1105    7.2424   15.7383 C.3     1  <0>        -0.0146
     21 C21         6.6365    6.0157   17.2936 C.3     1  <0>         0.0934
     22 C22         2.5178    5.6261   18.4268 C.ar    1  <0>        -0.0143
     23 C23         4.3888    7.6153   20.4142 C.ar    1  <0>         0.0025
     24 C24         5.9086   10.2445   16.5244 C.ar    1  <0>        -0.0136
     25 C25         7.3950    8.3583   17.1895 C.ar    1  <0>         0.0772
     26 C26         4.6172   10.7425   15.9290 C.ar    1  <0>         0.0054
     27 C27         3.3518   10.1433   16.2947 C.ar    1  <0>         0.0645
     28 C28         2.7773    7.7682   17.0182 C.2     1  <0>         0.0441
     29 C29         3.0004    7.0319   18.1535 C.2     1  <0>         0.0287
     30 C30         3.7734    7.9241   19.0903 C.2     1  <0>         0.0987
     31 C31         6.3513    5.4429   15.9084 C.2     1  <0>         0.0678
     32 N1          3.9263    9.0710   18.4937 N.2     1  <0>        -0.1742
     33 N2          3.3277    9.0307   17.1959 N.pl3   1  <0>        -0.1954
     34 O1          5.5131    4.4361   15.7706 O.co2   1  <0>        -0.5474
     35 O2          6.8880    5.9267   14.9140 O.co2   1  <0>        -0.5474
     36 O3          7.6938    7.0036   17.2127 O.3     1  <0>        -0.3389
     37 H1          2.6619    6.4196   13.8132 H       1  <0>         0.0233
     38 H2          3.8090    7.6425   14.4575 H       1  <0>         0.0233
     39 H3          3.7749    5.9874   15.1552 H       1  <0>         0.0233
     40 H4          1.2445    1.9899   19.2139 H       1  <0>         0.0618
     41 H5          6.0655    6.9439   23.9067 H       1  <0>         0.0618
     42 H6          3.6964    2.4574   19.1094 H       1  <0>         0.0618
     43 H7         -0.4059    3.8250   18.8201 H       1  <0>         0.0618
     44 H8          3.8897    5.8500   23.3383 H       1  <0>         0.0618
     45 H9          7.1782    8.4661   22.2649 H       1  <0>         0.0618
     46 H10         3.4316   13.1856   13.8068 H       1  <0>         0.0618
     47 H11         1.2465   12.1562   14.4486 H       1  <0>         0.0618
     48 H12         8.6988   11.3800   18.2184 H       1  <0>         0.0619
     49 H13         4.5140    4.7635   18.6012 H       1  <0>         0.0624
     50 H14         0.3929    6.1371   18.3270 H       1  <0>         0.0624
     51 H15         2.8161    6.2718   21.1168 H       1  <0>         0.0624
     52 H16         6.1134    8.8931   20.0379 H       1  <0>         0.0624
     53 H17         5.5692   12.2994   14.7387 H       1  <0>         0.0624
     54 H18         1.1873   10.2225   16.0289 H       1  <0>         0.0637
     55 H19         6.6144   12.2215   17.1091 H       1  <0>         0.0624
     56 H20         9.1928    8.9279   18.2780 H       1  <0>         0.0643
     57 H21         5.5197    8.1459   16.0878 H       1  <0>         0.0649
     58 H22         1.5038    8.0456   15.2947 H       1  <0>         0.0324
     59 H23         1.4696    6.3859   15.9942 H       1  <0>         0.0324
     60 H24         5.7249    6.4901   17.6856 H       1  <0>         0.0627
     61 H25         6.9488    5.2030   17.9659 H       1  <0>         0.0627
@<TRIPOS>BOND
     1     1    20    1
     2     2     4   ar
     3     2     5   ar
     4     3     6   ar
     5     3     7   ar
     6     4    11   ar
     7     5    12   ar
     8     6    13   ar
     9     7    14   ar
    10     8     9   ar
    11     8    15   ar
    12     9    16   ar
    13    10    17   ar
    14    10    18   ar
    15    11    22   ar
    16    12    22   ar
    17    13    23   ar
    18    14    23   ar
    19    15    26   ar
    20    16    27   ar
    21    17    24   ar
    22    18    25   ar
    23    19    24   ar
    24    19    25   ar
    25    20    28    1
    26    21    31    1
    27    21    36    1
    28    22    29    1
    29    23    30    1
    30    24    26    1
    31    25    36    1
    32    26    27   ar
    33    27    33    1
    34    28    29    2
    35    28    33    1
    36    29    30    1
    37    30    32    2
    38    31    34    1
    39    31    35    2
    40    32    33    1
    41     1    37    1
    42     1    38    1
    43     1    39    1
    44     2    40    1
    45     3    41    1
    46     4    42    1
    47     5    43    1
    48     6    44    1
    49     7    45    1
    50     8    46    1
    51     9    47    1
    52    10    48    1
    53    11    49    1
    54    12    50    1
    55    13    51    1
    56    14    52    1
    57    15    53    1
    58    16    54    1
    59    17    55    1
    60    18    56    1
    61    19    57    1
    62    20    58    1
    63    20    59    1
    64    21    60    1
    65    21    61    1
@<TRIPOS>SUBSTRUCTURE
     1 <0>         1 TEMP              0 ****  ****    0 ROOT

