
##########                                Name:        T4B_293_2NNQ
##########                    Molecular_Weight:             473.551
##########                DOCK_Rotatable_Bonds:                   8
##########                       Formal_Charge:             -0.9997
##########                     HBond_Acceptors:                   5
##########                        HBond_Donors:                   0
##########                         Heavy_Atoms:                  36
##########                            HA_RMSDs:               0.593
##########                            HA_RMSDh:               0.593
##########                            HA_RMSDm:               0.590
##########                          Grid_Score:           -4.816711
##########                     Grid_vdw_energy:          -58.662460
##########                      Grid_es_energy:           53.845749
##########           Internal_energy_repulsive:           16.927790

@<TRIPOS>MOLECULE
T4B_293_2NNQ
 61 65 1 0 0
SMALL
USER_CHARGES


@<TRIPOS>ATOM
      1 C1          3.2919    7.1100   14.7467 C.3     1  <0>        -0.0600
      2 C2          1.5789    3.1966   19.0062 C.ar    1  <0>        -0.0617
      3 C3          5.6753    7.1741   23.0325 C.ar    1  <0>        -0.0617
      4 C4          2.9807    3.4161   18.9090 C.ar    1  <0>        -0.0612
      5 C5          0.6698    4.2764   18.8397 C.ar    1  <0>        -0.0612
      6 C6          4.3271    6.7871   22.7845 C.ar    1  <0>        -0.0611
      7 C7          6.4295    7.8375   22.0268 C.ar    1  <0>        -0.0611
      8 C8          3.6911   12.5593   14.6296 C.ar    1  <0>        -0.0611
      9 C9          2.4443   11.9100   14.8597 C.ar    1  <0>        -0.0599
     10 C10         7.8311   10.9749   18.5862 C.ar    1  <0>        -0.0587
     11 C11         3.4819    4.7183   18.6417 C.ar    1  <0>        -0.0539
     12 C12         1.1609    5.5798   18.5776 C.ar    1  <0>        -0.0539
     13 C13         3.7269    7.0627   21.5240 C.ar    1  <0>        -0.0525
     14 C14         5.8332    8.1152   20.7623 C.ar    1  <0>        -0.0525
     15 C15         4.8709   12.1087   15.2802 C.ar    1  <0>        -0.0522
     16 C16         2.3718   10.8015   15.7429 C.ar    1  <0>        -0.0379
     17 C17         6.6932   11.4222   17.8432 C.ar    1  <0>        -0.0538
     18 C18         8.3458    9.6605   18.3896 C.ar    1  <0>        -0.0316
     19 C19         6.5893    9.2381   16.6974 C.ar    1  <0>        -0.0239
     20 C20         2.2400    7.4726   15.8017 C.3     1  <0>        -0.0146
     21 C21         7.3976    6.3478   17.2942 C.3     1  <0>         0.0934
     22 C22         2.5773    5.8151   18.4748 C.ar    1  <0>        -0.0143
     23 C23         4.4806    7.7305   20.5035 C.ar    1  <0>         0.0025
     24 C24         6.0638   10.5538   16.8980 C.ar    1  <0>        -0.0136
     25 C25         7.7314    8.7849   17.4452 C.ar    1  <0>         0.0772
     26 C26         4.8180   10.9956   16.1749 C.ar    1  <0>         0.0054
     27 C27         3.5523   10.3327   16.4043 C.ar    1  <0>         0.0645
     28 C28         2.9077    7.9655   17.0941 C.2     1  <0>         0.0441
     29 C29         3.0998    7.2106   18.2227 C.2     1  <0>         0.0287
     30 C30         3.8869    8.0709   19.1774 C.2     1  <0>         0.0987
     31 C31         7.0875    5.8771   15.8763 C.2     1  <0>         0.0678
     32 N1          4.0761    9.2201   18.5959 N.2     1  <0>        -0.1742
     33 N2          3.4896    9.2108   17.2921 N.pl3   1  <0>        -0.1954
     34 O1          6.7879    4.6143   15.6510 O.co2   1  <0>        -0.5474
     35 O2          7.0996    6.6746   14.9409 O.co2   1  <0>        -0.5474
     36 O3          8.2557    7.5150   17.2518 O.3     1  <0>        -0.3389
     37 H1          2.7897    6.7606   13.8325 H       1  <0>         0.0233
     38 H2          3.8994    7.9972   14.5149 H       1  <0>         0.0233
     39 H3          3.9414    6.3121   15.1360 H       1  <0>         0.0233
     40 H4          1.2032    2.2043   19.2075 H       1  <0>         0.0618
     41 H5          6.1271    6.9621   23.9904 H       1  <0>         0.0618
     42 H6          3.6656    2.5911   19.0385 H       1  <0>         0.0618
     43 H7         -0.3938    4.1040   18.9128 H       1  <0>         0.0618
     44 H8          3.7599    6.2841   23.5538 H       1  <0>         0.0618
     45 H9          7.4510    8.1301   22.2202 H       1  <0>         0.0618
     46 H10         3.7399   13.4013   13.9549 H       1  <0>         0.0618
     47 H11         1.5530   12.2617   14.3615 H       1  <0>         0.0618
     48 H12         8.3019   11.6359   19.2988 H       1  <0>         0.0619
     49 H13         4.5468    4.8810   18.5645 H       1  <0>         0.0624
     50 H14         0.4694    6.4002   18.4546 H       1  <0>         0.0624
     51 H15         2.7046    6.7690   21.3364 H       1  <0>         0.0624
     52 H16         6.4052    8.6181   19.9967 H       1  <0>         0.0624
     53 H17         5.8106   12.6088   15.0981 H       1  <0>         0.0624
     54 H18         1.4254   10.3109   15.9164 H       1  <0>         0.0637
     55 H19         6.3083   12.4195   17.9970 H       1  <0>         0.0624
     56 H20         9.2024    9.3267   18.9565 H       1  <0>         0.0643
     57 H21         6.1246    8.5798   15.9784 H       1  <0>         0.0649
     58 H22         1.5950    8.2706   15.4050 H       1  <0>         0.0324
     59 H23         1.6371    6.5807   16.0277 H       1  <0>         0.0324
     60 H24         6.4583    6.6054   17.8053 H       1  <0>         0.0627
     61 H25         7.9073    5.5414   17.8417 H       1  <0>         0.0627
@<TRIPOS>BOND
     1     1    20    1
     2     2     4   ar
     3     2     5   ar
     4     3     6   ar
     5     3     7   ar
     6     4    11   ar
     7     5    12   ar
     8     6    13   ar
     9     7    14   ar
    10     8     9   ar
    11     8    15   ar
    12     9    16   ar
    13    10    17   ar
    14    10    18   ar
    15    11    22   ar
    16    12    22   ar
    17    13    23   ar
    18    14    23   ar
    19    15    26   ar
    20    16    27   ar
    21    17    24   ar
    22    18    25   ar
    23    19    24   ar
    24    19    25   ar
    25    20    28    1
    26    21    31    1
    27    21    36    1
    28    22    29    1
    29    23    30    1
    30    24    26    1
    31    25    36    1
    32    26    27   ar
    33    27    33    1
    34    28    29    2
    35    28    33    1
    36    29    30    1
    37    30    32    2
    38    31    34    1
    39    31    35    2
    40    32    33    1
    41     1    37    1
    42     1    38    1
    43     1    39    1
    44     2    40    1
    45     3    41    1
    46     4    42    1
    47     5    43    1
    48     6    44    1
    49     7    45    1
    50     8    46    1
    51     9    47    1
    52    10    48    1
    53    11    49    1
    54    12    50    1
    55    13    51    1
    56    14    52    1
    57    15    53    1
    58    16    54    1
    59    17    55    1
    60    18    56    1
    61    19    57    1
    62    20    58    1
    63    20    59    1
    64    21    60    1
    65    21    61    1
@<TRIPOS>SUBSTRUCTURE
     1 <0>         1 TEMP              0 ****  ****    0 ROOT

