
##########                                Name:        T4B_293_2NNQ
##########                    Molecular_Weight:             473.551
##########                DOCK_Rotatable_Bonds:                   8
##########                       Formal_Charge:             -0.9997
##########                     HBond_Acceptors:                   5
##########                        HBond_Donors:                   0
##########                         Heavy_Atoms:                  36
##########                            HA_RMSDs:               0.825
##########                            HA_RMSDh:               0.825
##########                            HA_RMSDm:               0.779
##########                          Grid_Score:            4.328529
##########                     Grid_vdw_energy:          -48.352058
##########                      Grid_es_energy:           52.680588
##########           Internal_energy_repulsive:           17.372608

@<TRIPOS>MOLECULE
T4B_293_2NNQ
 61 65 1 0 0
SMALL
USER_CHARGES


@<TRIPOS>ATOM
      1 C1          3.2965    7.4224   14.7939 C.3     1  <0>        -0.0600
      2 C2          1.7425    3.0703   18.7665 C.ar    1  <0>        -0.0617
      3 C3          5.5980    6.9488   23.1225 C.ar    1  <0>        -0.0617
      4 C4          3.1256    3.3827   18.8764 C.ar    1  <0>        -0.0612
      5 C5          0.7950    4.0934   18.4913 C.ar    1  <0>        -0.0612
      6 C6          4.4378    6.2537   22.6758 C.ar    1  <0>        -0.0611
      7 C7          6.1730    7.9751   22.3247 C.ar    1  <0>        -0.0611
      8 C8          3.4417   12.8066   15.0848 C.ar    1  <0>        -0.0611
      9 C9          2.2180   12.1065   15.2882 C.ar    1  <0>        -0.0599
     10 C10         7.7050   11.0728   18.8382 C.ar    1  <0>        -0.0587
     11 C11         3.5699    4.7217   18.7088 C.ar    1  <0>        -0.0539
     12 C12         1.2286    5.4327   18.3274 C.ar    1  <0>        -0.0539
     13 C13         3.8472    6.5835   21.4239 C.ar    1  <0>        -0.0525
     14 C14         5.5857    8.3088   21.0695 C.ar    1  <0>        -0.0525
     15 C15         4.6454   12.3451   15.6819 C.ar    1  <0>        -0.0522
     16 C16         2.1927   10.9362   16.0906 C.ar    1  <0>        -0.0379
     17 C17         6.5416   11.5378   18.1477 C.ar    1  <0>        -0.0538
     18 C18         8.2441    9.7851   18.5509 C.ar    1  <0>        -0.0316
     19 C19         6.4607    9.4257   16.8723 C.ar    1  <0>        -0.0239
     20 C20         2.2280    7.5869   15.8811 C.3     1  <0>        -0.0146
     21 C21         7.3239    6.5873   16.9535 C.3     1  <0>         0.0934
     22 C22         2.6258    5.7620   18.4341 C.ar    1  <0>        -0.0143
     23 C23         4.4212    7.6166   20.6121 C.ar    1  <0>         0.0025
     24 C24         5.9109   10.7142   17.1640 C.ar    1  <0>        -0.0136
     25 C25         7.6286    8.9545   17.5673 C.ar    1  <0>         0.0772
     26 C26         4.6401   11.1700   16.4951 C.ar    1  <0>         0.0054
     27 C27         3.3977   10.4559   16.6971 C.ar    1  <0>         0.0645
     28 C28         2.8624    8.0180   17.2118 C.2     1  <0>         0.0441
     29 C29         3.0826    7.1949   18.2863 C.2     1  <0>         0.0287
     30 C30         3.8210    8.0216   19.3073 C.2     1  <0>         0.0987
     31 C31         7.3187    6.3651   15.4440 C.2     1  <0>         0.0678
     32 N1          3.9591    9.2168   18.8102 N.2     1  <0>        -0.1742
     33 N2          3.3827    9.2723   17.5029 N.pl3   1  <0>        -0.1954
     34 O1          7.0290    5.1777   14.9527 O.co2   1  <0>        -0.5474
     35 O2          7.5683    7.2944   14.6790 O.co2   1  <0>        -0.5474
     36 O3          8.1763    7.7113   17.2857 O.3     1  <0>        -0.3389
     37 H1          2.8181    7.1140   13.8526 H       1  <0>         0.0233
     38 H2          3.8172    8.3797   14.6438 H       1  <0>         0.0233
     39 H3          4.0212    6.6556   15.1052 H       1  <0>         0.0233
     40 H4          1.4104    2.0505   18.8929 H       1  <0>         0.0618
     41 H5          6.0434    6.6946   24.0731 H       1  <0>         0.0618
     42 H6          3.8396    2.6004   19.0875 H       1  <0>         0.0618
     43 H7         -0.2540    3.8506   18.4072 H       1  <0>         0.0618
     44 H8          4.0059    5.4756   23.2878 H       1  <0>         0.0618
     45 H9          7.0519    8.5002   22.6684 H       1  <0>         0.0618
     46 H10         3.4546   13.6955   14.4716 H       1  <0>         0.0618
     47 H11         1.3082   12.4668   14.8312 H       1  <0>         0.0618
     48 H12         8.1766   11.6999   19.5803 H       1  <0>         0.0619
     49 H13         4.6214    4.9550   18.7888 H       1  <0>         0.0624
     50 H14         0.5073    6.2099   18.1216 H       1  <0>         0.0624
     51 H15         2.9676    6.0561   21.0855 H       1  <0>         0.0624
     52 H16         6.0220    9.0875   20.4615 H       1  <0>         0.0624
     53 H17         5.5674   12.8840   15.5207 H       1  <0>         0.0624
     54 H18         1.2637   10.4072   16.2440 H       1  <0>         0.0637
     55 H19         6.1382   12.5147   18.3702 H       1  <0>         0.0624
     56 H20         9.1200    9.4375   19.0785 H       1  <0>         0.0643
     57 H21         5.9949    8.8017   16.1239 H       1  <0>         0.0649
     58 H22         1.5078    8.3549   15.5623 H       1  <0>         0.0324
     59 H23         1.7124    6.6260   16.0249 H       1  <0>         0.0324
     60 H24         6.2988    6.7952   17.2939 H       1  <0>         0.0627
     61 H25         7.7030    5.6834   17.4527 H       1  <0>         0.0627
@<TRIPOS>BOND
     1     1    20    1
     2     2     4   ar
     3     2     5   ar
     4     3     6   ar
     5     3     7   ar
     6     4    11   ar
     7     5    12   ar
     8     6    13   ar
     9     7    14   ar
    10     8     9   ar
    11     8    15   ar
    12     9    16   ar
    13    10    17   ar
    14    10    18   ar
    15    11    22   ar
    16    12    22   ar
    17    13    23   ar
    18    14    23   ar
    19    15    26   ar
    20    16    27   ar
    21    17    24   ar
    22    18    25   ar
    23    19    24   ar
    24    19    25   ar
    25    20    28    1
    26    21    31    1
    27    21    36    1
    28    22    29    1
    29    23    30    1
    30    24    26    1
    31    25    36    1
    32    26    27   ar
    33    27    33    1
    34    28    29    2
    35    28    33    1
    36    29    30    1
    37    30    32    2
    38    31    34    1
    39    31    35    2
    40    32    33    1
    41     1    37    1
    42     1    38    1
    43     1    39    1
    44     2    40    1
    45     3    41    1
    46     4    42    1
    47     5    43    1
    48     6    44    1
    49     7    45    1
    50     8    46    1
    51     9    47    1
    52    10    48    1
    53    11    49    1
    54    12    50    1
    55    13    51    1
    56    14    52    1
    57    15    53    1
    58    16    54    1
    59    17    55    1
    60    18    56    1
    61    19    57    1
    62    20    58    1
    63    20    59    1
    64    21    60    1
    65    21    61    1
@<TRIPOS>SUBSTRUCTURE
     1 <0>         1 TEMP              0 ****  ****    0 ROOT

