
##########                                Name:        T4B_293_2NNQ
##########                    Molecular_Weight:             473.551
##########                DOCK_Rotatable_Bonds:                   8
##########                       Formal_Charge:             -0.9997
##########                     HBond_Acceptors:                   5
##########                        HBond_Donors:                   0
##########                         Heavy_Atoms:                  36
##########                            HA_RMSDs:              16.166
##########                            HA_RMSDh:              16.063
##########                            HA_RMSDm:              14.717
##########                          Grid_Score:           -8.053523
##########                     Grid_vdw_energy:          -22.081945
##########                      Grid_es_energy:           14.028422
##########           Internal_energy_repulsive:           14.957546

@<TRIPOS>MOLECULE
T4B_293_2NNQ
 61 65 1 0 0
SMALL
USER_CHARGES


@<TRIPOS>ATOM
      1 C1         -7.2129   -1.3565    8.8834 C.3     1  <0>        -0.0600
      2 C2         -9.7061   -1.0409   14.7260 C.ar    1  <0>        -0.0617
      3 C3         -3.7467   -4.3173   16.3576 C.ar    1  <0>        -0.0617
      4 C4         -9.0080   -2.2799   14.7324 C.ar    1  <0>        -0.0612
      5 C5         -9.2411    0.0412   13.9303 C.ar    1  <0>        -0.0612
      6 C6         -4.1376   -2.9518   16.4649 C.ar    1  <0>        -0.0611
      7 C7         -3.7095   -4.9570   15.0889 C.ar    1  <0>        -0.0611
      8 C8         -2.5905   -0.5828    6.9594 C.ar    1  <0>        -0.0611
      9 C9         -3.2474    0.4789    7.6451 C.ar    1  <0>        -0.0599
     10 C10        -1.9444   -5.3615   10.4679 C.ar    1  <0>        -0.0587
     11 C11        -7.8404   -2.4448   13.9399 C.ar    1  <0>        -0.0539
     12 C12        -8.0746   -0.1126   13.1404 C.ar    1  <0>        -0.0539
     13 C13        -4.4950   -2.2191   15.2985 C.ar    1  <0>        -0.0525
     14 C14        -4.0673   -4.2277   13.9176 C.ar    1  <0>        -0.0525
     15 C15        -2.5887   -1.8978    7.4972 C.ar    1  <0>        -0.0522
     16 C16        -3.9099    0.2292    8.8751 C.ar    1  <0>        -0.0379
     17 C17        -1.9740   -4.0761    9.8406 C.ar    1  <0>        -0.0538
     18 C18        -3.1375   -6.1327   10.5821 C.ar    1  <0>        -0.0316
     19 C19        -4.3946   -4.3368    9.4322 C.ar    1  <0>        -0.0239
     20 C20        -6.9882   -0.4800   10.1213 C.3     1  <0>        -0.0146
     21 C21        -6.7096   -5.8667   10.7965 C.3     1  <0>         0.0934
     22 C22        -7.3598   -1.3621   13.1362 C.ar    1  <0>        -0.0143
     23 C23        -4.4613   -2.8566   14.0148 C.ar    1  <0>         0.0025
     24 C24        -3.2009   -3.5554    9.3234 C.ar    1  <0>        -0.0136
     25 C25        -4.3682   -5.6282   10.0652 C.ar    1  <0>         0.0772
     26 C26        -3.2482   -2.1689    8.7355 C.ar    1  <0>         0.0054
     27 C27        -3.9201   -1.0913    9.4293 C.ar    1  <0>         0.0645
     28 C28        -5.9043   -1.0810   11.0286 C.2     1  <0>         0.0441
     29 C29        -6.1007   -1.5149   12.3145 C.2     1  <0>         0.0287
     30 C30        -4.7955   -2.1231   12.7590 C.2     1  <0>         0.0987
     31 C31        -7.9170   -6.0783    9.8879 C.2     1  <0>         0.0678
     32 N1         -3.9538   -1.9941   11.7743 N.2     1  <0>        -0.1742
     33 N2         -4.5916   -1.3537   10.6665 N.pl3   1  <0>        -0.1954
     34 O1         -9.1334   -6.0656   10.3933 O.co2   1  <0>        -0.5474
     35 O2         -7.7631   -6.2452    8.6798 O.co2   1  <0>        -0.5474
     36 O3         -5.5173   -6.3989   10.1675 O.3     1  <0>        -0.3389
     37 H1         -7.9919   -0.9058    8.2509 H       1  <0>         0.0233
     38 H2         -6.2755   -1.4319    8.3126 H       1  <0>         0.0233
     39 H3         -7.5323   -2.3608    9.1986 H       1  <0>         0.0233
     40 H4        -10.5942   -0.9216   15.3288 H       1  <0>         0.0618
     41 H5         -3.4771   -4.8699   17.2456 H       1  <0>         0.0618
     42 H6         -9.3661   -3.0971   15.3408 H       1  <0>         0.0618
     43 H7         -9.7760    0.9794   13.9278 H       1  <0>         0.0618
     44 H8         -4.1627   -2.4721   17.4322 H       1  <0>         0.0618
     45 H9         -3.4111   -5.9922   15.0126 H       1  <0>         0.0618
     46 H10        -2.0897   -0.3866    6.0228 H       1  <0>         0.0618
     47 H11        -3.2413    1.4753    7.2285 H       1  <0>         0.0618
     48 H12        -1.0143   -5.7491   10.8566 H       1  <0>         0.0619
     49 H13        -7.3148   -3.3883   13.9437 H       1  <0>         0.0624
     50 H14        -7.7202    0.7114   12.5387 H       1  <0>         0.0624
     51 H15        -4.7913   -1.1837   15.3803 H       1  <0>         0.0624
     52 H16        -4.0406   -4.7125   12.9530 H       1  <0>         0.0624
     53 H17        -2.0874   -2.6949    6.9684 H       1  <0>         0.0624
     54 H18        -4.4069    1.0357    9.3936 H       1  <0>         0.0637
     55 H19        -1.0662   -3.4969    9.7573 H       1  <0>         0.0624
     56 H20        -3.1101   -7.1005   11.0607 H       1  <0>         0.0643
     57 H21        -5.3233   -3.9538    9.0358 H       1  <0>         0.0649
     58 H22        -6.6692    0.5218    9.7977 H       1  <0>         0.0324
     59 H23        -7.9295   -0.4097   10.6860 H       1  <0>         0.0324
     60 H24        -6.5753   -4.7902   10.9779 H       1  <0>         0.0627
     61 H25        -6.8785   -6.3845   11.7522 H       1  <0>         0.0627
@<TRIPOS>BOND
     1     1    20    1
     2     2     4   ar
     3     2     5   ar
     4     3     6   ar
     5     3     7   ar
     6     4    11   ar
     7     5    12   ar
     8     6    13   ar
     9     7    14   ar
    10     8     9   ar
    11     8    15   ar
    12     9    16   ar
    13    10    17   ar
    14    10    18   ar
    15    11    22   ar
    16    12    22   ar
    17    13    23   ar
    18    14    23   ar
    19    15    26   ar
    20    16    27   ar
    21    17    24   ar
    22    18    25   ar
    23    19    24   ar
    24    19    25   ar
    25    20    28    1
    26    21    31    1
    27    21    36    1
    28    22    29    1
    29    23    30    1
    30    24    26    1
    31    25    36    1
    32    26    27   ar
    33    27    33    1
    34    28    29    2
    35    28    33    1
    36    29    30    1
    37    30    32    2
    38    31    34    1
    39    31    35    2
    40    32    33    1
    41     1    37    1
    42     1    38    1
    43     1    39    1
    44     2    40    1
    45     3    41    1
    46     4    42    1
    47     5    43    1
    48     6    44    1
    49     7    45    1
    50     8    46    1
    51     9    47    1
    52    10    48    1
    53    11    49    1
    54    12    50    1
    55    13    51    1
    56    14    52    1
    57    15    53    1
    58    16    54    1
    59    17    55    1
    60    18    56    1
    61    19    57    1
    62    20    58    1
    63    20    59    1
    64    21    60    1
    65    21    61    1
@<TRIPOS>SUBSTRUCTURE
     1 <0>         1 TEMP              0 ****  ****    0 ROOT

