
##########                                Name:       xtal-lig.mol2
##########                    Molecular_Weight:              322.35
##########                DOCK_Rotatable_Bonds:                   6
##########                       Formal_Charge:                   6
##########                     HBond_Acceptors:                   8
##########                        HBond_Donors:                   4
##########                         Heavy_Atoms:                  24
##########                            HA_RMSDs:               1.079
##########                            HA_RMSDh:               1.079
##########                            HA_RMSDm:               1.019
##########                          Grid_Score:          -51.593128
##########                     Grid_vdw_energy:          -39.973480
##########                      Grid_es_energy:          -11.619648
##########           Internal_energy_repulsive:           15.563427

@<TRIPOS>MOLECULE
xtal-lig.mol2
 40 43 1 0 0
SMALL
USER_CHARGES


@<TRIPOS>ATOM
      1 C1        -10.8646  -10.3000   60.1815 C.ar    1  <0>        -0.0584
      2 C2        -11.2160   -9.9333   61.4742 C.ar    1  <0>        -0.0615
      3 C3        -12.2277   -9.0033   61.6812 C.ar    1  <0>        -0.0617
      4 C4        -12.8858   -8.4404   60.5946 C.ar    1  <0>        -0.0615
      5 C5        -12.5370   -8.8089   59.3029 C.ar    1  <0>        -0.0584
      6 C6        -11.5296   -9.7422   59.0957 C.ar    1  <0>        -0.0414
      7 C7        -11.1350  -10.1363   57.6733 C.3     1  <0>         0.0315
      8 C8         -9.6209  -10.0297   57.5157 C.3     1  <0>         0.1554
      9 N1         -9.2192  -10.3285   56.1357 N.pl3   1  <0>        -0.0640
     10 C9         -8.8265   -9.2775   55.4238 C.2     1  <0>         0.9533
     11 N2         -8.4026   -9.4053   54.1562 N.1     1  <0>         0.2395
     12 N3         -8.8400   -8.0820   56.0354 N.1     1  <0>         0.2195
     13 C10        -8.4545   -6.9709   55.3983 C.2     1  <0>         0.7700
     14 N4         -8.4877   -5.7954   56.0219 N.pl3   1  <0>        -0.0974
     15 N5         -8.0157   -7.0692   54.0802 N.pl3   1  <0>         0.2113
     16 N6         -7.6105   -6.2323   53.2725 N.pl3   1  <0>        -0.0509
     17 C11        -7.9997   -8.3231   53.4711 C.2     1  <0>         0.9095
     18 N7         -7.5463   -8.1392   52.2369 N.1     1  <0>         0.1503
     19 C12        -7.3022   -6.8328   52.1213 C.2     1  <0>         0.5484
     20 C13        -6.8201   -6.1845   50.9916 C.2     1  <0>         0.2361
     21 C14        -6.3868   -6.7079   49.8493 C.2     1  <0>        -0.0108
     22 C15        -6.0217   -5.7059   49.0499 C.2     1  <0>        -0.0350
     23 C16        -6.2208   -4.5481   49.6790 C.2     1  <0>         0.0482
     24 O1         -6.7279   -4.8290   50.9178 O.3     1  <0>        -0.2997
     25 H1        -10.0747  -11.0186   60.0199 H       1  <0>         0.0620
     26 H2        -10.7033  -10.3707   62.3181 H       1  <0>         0.0618
     27 H3        -12.5022   -8.7182   62.6861 H       1  <0>         0.0618
     28 H4        -13.6697   -7.7152   60.7554 H       1  <0>         0.0618
     29 H5        -13.0487   -8.3701   58.4591 H       1  <0>         0.0620
     30 H6        -11.6263   -9.4618   56.9567 H       1  <0>         0.0375
     31 H7        -11.4515  -11.1717   57.4790 H       1  <0>         0.0375
     32 H8         -9.1379  -10.7487   58.1938 H       1  <0>         0.1027
     33 H9         -9.3049   -9.0068   57.7680 H       1  <0>         0.1027
     34 H10       -10.0074  -10.7320   55.6711 H       1  <0>         0.4523
     35 H11        -8.8016   -5.7409   56.9698 H       1  <0>         0.4540
     36 H12        -8.1988   -4.9667   55.5425 H       1  <0>         0.4540
     37 H13        -7.5255   -5.2522   53.4521 H       1  <0>         0.2593
     38 H14        -6.3389   -7.7602   49.6108 H       1  <0>         0.0655
     39 H15        -5.6270   -5.8150   48.0505 H       1  <0>         0.0638
     40 H16        -6.0182   -3.5644   49.2819 H       1  <0>         0.0890
@<TRIPOS>BOND
     1     1    25    1
     2     1     6   ar
     3     6     7    1
     4     7    31    1
     5     7    30    1
     6     7     8    1
     7     8    33    1
     8     8    32    1
     9     8     9    1
    10     9    34    1
    11     9    10    2
    12    10    12    2
    13    12    13    2
    14    13    15    2
    15    15    17    2
    16    17    18    2
    17    18    19    2
    18    19    20    1
    19    20    24    1
    20    23    24    1
    21    23    40    1
    22    22    23    2
    23    22    39    1
    24    21    22    1
    25    21    38    1
    26    20    21    2
    27    16    19    2
    28    16    37    1
    29    15    16    2
    30    11    17    2
    31    10    11    2
    32    13    14    2
    33    14    36    1
    34    14    35    1
    35     5     6   ar
    36     5    29    1
    37     4     5   ar
    38     4    28    1
    39     3     4   ar
    40     3    27    1
    41     2     3   ar
    42     2    26    1
    43     1     2   ar
@<TRIPOS>SUBSTRUCTURE
     1 <0>         1 TEMP              0 ****  ****    0 ROOT

