
##########                                Name:        CIW_221_3NF7
##########                    Molecular_Weight:             344.731
##########                DOCK_Rotatable_Bonds:                   3
##########                       Formal_Charge:             -0.9996
##########                     HBond_Acceptors:                   7
##########                        HBond_Donors:                   0
##########                         Heavy_Atoms:                  24
##########                            HA_RMSDs:               7.989
##########                            HA_RMSDh:               7.058
##########                            HA_RMSDm:               6.588
##########                          Grid_Score:           -2.759005
##########                     Grid_vdw_energy:          -25.943024
##########                      Grid_es_energy:           23.184019
##########           Internal_energy_repulsive:           12.969551

@<TRIPOS>MOLECULE
CIW_221_3NF7
 35 38 1 0 0
SMALL
USER_CHARGES


@<TRIPOS>ATOM
      1 C1          9.0309  -26.0388  -11.3080 C.ar    1  <0>        -0.0416
      2 C2          8.0428  -26.5311  -16.1436 C.ar    1  <0>        -0.0538
      3 C3          8.8379  -25.6259  -12.6074 C.ar    1  <0>        -0.0386
      4 C4          7.0609  -27.2129  -16.8296 C.ar    1  <0>        -0.0287
      5 C5         11.2845  -26.7566  -11.7660 C.ar    1  <0>        -0.0380
      6 C6         12.0525  -26.3876  -14.1895 C.3     1  <0>         0.0514
      7 C7          4.3658  -25.6740  -18.6025 C.3     1  <0>         0.1601
      8 C8          9.1198  -24.4695  -15.3332 C.3     1  <0>         0.0455
      9 C9         10.2218  -26.5892  -10.9027 C.ar    1  <0>         0.0414
     10 C10         8.0509  -25.1360  -16.1161 C.ar    1  <0>        -0.0182
     11 C11         9.9040  -25.8081  -13.4496 C.ar    1  <0>         0.0403
     12 C12         6.1173  -26.4550  -17.4912 C.ar    1  <0>         0.1097
     13 C13        11.0996  -26.3513  -13.0664 C.ar    1  <0>        -0.0158
     14 C14         7.0973  -24.3783  -16.7827 C.ar    1  <0>         0.0346
     15 C15         6.1489  -25.0910  -17.4596 C.ar    1  <0>         0.1181
     16 C16        11.2131  -25.8165  -15.3002 C.2     1  <0>         0.2245
     17 C17         7.0036  -22.8763  -16.8145 C.2     1  <0>         0.0745
     18 N1          9.9688  -25.4760  -14.7799 N.am    1  <0>        -0.2665
     19 O1          6.4868  -22.2259  -15.8777 O.co2   1  <0>        -0.5445
     20 O2         11.5659  -25.7461  -16.4649 O.2     1  <0>        -0.2749
     21 O3          7.4315  -22.3216  -17.8492 O.co2   1  <0>        -0.5445
     22 O4          5.0326  -26.9110  -18.2438 O.3     1  <0>        -0.3150
     23 O5          5.1099  -24.5372  -18.1580 O.3     1  <0>        -0.3144
     24 Cl1        10.3865  -27.1104   -9.2803 Cl      1  <0>        -0.0835
     25 H1          8.2291  -25.9276  -10.5931 H       1  <0>         0.0633
     26 H2          8.8125  -27.0814  -15.6230 H       1  <0>         0.0622
     27 H3          7.9088  -25.1878  -12.9406 H       1  <0>         0.0637
     28 H4          7.0316  -28.2923  -16.8482 H       1  <0>         0.0644
     29 H5         12.2186  -27.1863  -11.4355 H       1  <0>         0.0635
     30 H6         12.9530  -25.7869  -13.9941 H       1  <0>         0.0408
     31 H7         12.4007  -27.4075  -14.4101 H       1  <0>         0.0408
     32 H8          4.2652  -25.6281  -19.6969 H       1  <0>         0.0880
     33 H9          3.3720  -25.6556  -18.1313 H       1  <0>         0.0880
     34 H10         9.7046  -23.8074  -15.9888 H       1  <0>         0.0518
     35 H11         8.6729  -23.8727  -14.5245 H       1  <0>         0.0518
@<TRIPOS>BOND
     1     1     3   ar
     2     1     9   ar
     3     2     4   ar
     4     2    10   ar
     5     3    11   ar
     6     4    12   ar
     7     5     9   ar
     8     5    13   ar
     9     6    13    1
    10     6    16    1
    11     7    22    1
    12     7    23    1
    13     8    10    1
    14     8    18    1
    15     9    24    1
    16    10    14   ar
    17    11    13   ar
    18    11    18    1
    19    12    15   ar
    20    12    22    1
    21    14    15   ar
    22    14    17    1
    23    15    23    1
    24    16    18   am
    25    16    20    2
    26    17    19    1
    27    17    21    2
    28     1    25    1
    29     2    26    1
    30     3    27    1
    31     4    28    1
    32     5    29    1
    33     6    30    1
    34     6    31    1
    35     7    32    1
    36     7    33    1
    37     8    34    1
    38     8    35    1
@<TRIPOS>SUBSTRUCTURE
     1 <0>         1 TEMP              0 ****  ****    0 ROOT

