
##########                                Name:        CIW_221_3NF7
##########                    Molecular_Weight:             344.731
##########                DOCK_Rotatable_Bonds:                   3
##########                       Formal_Charge:             -0.9996
##########                     HBond_Acceptors:                   7
##########                        HBond_Donors:                   0
##########                         Heavy_Atoms:                  24
##########                            HA_RMSDs:              12.558
##########                            HA_RMSDh:              12.307
##########                            HA_RMSDm:              11.403
##########                          Grid_Score:           -1.829308
##########                     Grid_vdw_energy:          -29.374771
##########                      Grid_es_energy:           27.545464
##########           Internal_energy_repulsive:           12.721071

@<TRIPOS>MOLECULE
CIW_221_3NF7
 35 38 1 0 0
SMALL
USER_CHARGES


@<TRIPOS>ATOM
      1 C1          1.6148  -31.7647   -9.0733 C.ar    1  <0>        -0.0416
      2 C2         -1.2581  -28.6960   -6.5300 C.ar    1  <0>        -0.0538
      3 C3          0.6984  -30.7536   -8.8888 C.ar    1  <0>        -0.0386
      4 C4         -0.9602  -27.9241   -5.4277 C.ar    1  <0>        -0.0287
      5 C5         -0.0690  -33.4701   -8.8284 C.ar    1  <0>        -0.0380
      6 C6         -2.4420  -32.5781   -8.4131 C.3     1  <0>         0.0514
      7 C7         -0.4862  -24.3820   -5.4840 C.3     1  <0>         0.1601
      8 C8         -1.7063  -29.0036   -8.9324 C.3     1  <0>         0.0455
      9 C9          1.2381  -33.0847   -9.0423 C.ar    1  <0>         0.0414
     10 C10        -1.4166  -28.1086   -7.7858 C.ar    1  <0>        -0.0182
     11 C11        -0.5928  -31.1592   -8.6708 C.ar    1  <0>         0.0403
     12 C12        -0.8498  -26.5637   -5.6267 C.ar    1  <0>         0.1097
     13 C13        -0.9902  -32.4677   -8.6388 C.ar    1  <0>        -0.0158
     14 C14        -1.3026  -26.7385   -7.9803 C.ar    1  <0>         0.0346
     15 C15        -1.0181  -26.0081   -6.8618 C.ar    1  <0>         0.1181
     16 C16        -2.8252  -31.1291   -8.2787 C.2     1  <0>         0.2245
     17 C17        -1.4438  -26.0007   -9.2847 C.2     1  <0>         0.0745
     18 N1         -1.6858  -30.3540   -8.4676 N.am    1  <0>        -0.2665
     19 O1         -0.4808  -25.8592  -10.0722 O.co2   1  <0>        -0.5445
     20 O2         -3.9396  -30.7354   -7.9800 O.2     1  <0>        -0.2749
     21 O3         -2.5659  -25.5006   -9.5135 O.co2   1  <0>        -0.5445
     22 O4         -0.5537  -25.5843   -4.6759 O.3     1  <0>        -0.3150
     23 O5         -0.8409  -24.6507   -6.8425 O.3     1  <0>        -0.3144
     24 Cl1         2.4319  -34.2943   -9.2485 Cl      1  <0>        -0.0835
     25 H1          2.6510  -31.5143   -9.2459 H       1  <0>         0.0633
     26 H2         -1.3698  -29.7646   -6.4208 H       1  <0>         0.0622
     27 H3          0.9782  -29.7108   -8.9141 H       1  <0>         0.0637
     28 H4         -0.8195  -28.3648   -4.4518 H       1  <0>         0.0644
     29 H5         -0.3553  -34.5113   -8.8108 H       1  <0>         0.0635
     30 H6         -2.9592  -33.0720   -9.2488 H       1  <0>         0.0408
     31 H7         -2.6822  -33.1600   -7.5110 H       1  <0>         0.0408
     32 H8         -1.1848  -23.6377   -5.0741 H       1  <0>         0.0880
     33 H9          0.5415  -23.9906   -5.4551 H       1  <0>         0.0880
     34 H10        -2.6968  -28.7675   -9.3488 H       1  <0>         0.0518
     35 H11        -0.9447  -28.8666   -9.7142 H       1  <0>         0.0518
@<TRIPOS>BOND
     1     1     3   ar
     2     1     9   ar
     3     2     4   ar
     4     2    10   ar
     5     3    11   ar
     6     4    12   ar
     7     5     9   ar
     8     5    13   ar
     9     6    13    1
    10     6    16    1
    11     7    22    1
    12     7    23    1
    13     8    10    1
    14     8    18    1
    15     9    24    1
    16    10    14   ar
    17    11    13   ar
    18    11    18    1
    19    12    15   ar
    20    12    22    1
    21    14    15   ar
    22    14    17    1
    23    15    23    1
    24    16    18   am
    25    16    20    2
    26    17    19    1
    27    17    21    2
    28     1    25    1
    29     2    26    1
    30     3    27    1
    31     4    28    1
    32     5    29    1
    33     6    30    1
    34     6    31    1
    35     7    32    1
    36     7    33    1
    37     8    34    1
    38     8    35    1
@<TRIPOS>SUBSTRUCTURE
     1 <0>         1 TEMP              0 ****  ****    0 ROOT

