
##########                                Name:        CIW_221_3NF7
##########                    Molecular_Weight:             344.731
##########                DOCK_Rotatable_Bonds:                   3
##########                       Formal_Charge:             -0.9996
##########                     HBond_Acceptors:                   7
##########                        HBond_Donors:                   0
##########                         Heavy_Atoms:                  24
##########                            HA_RMSDs:              17.281
##########                            HA_RMSDh:              16.857
##########                            HA_RMSDm:              15.282
##########                          Grid_Score:           -0.774477
##########                     Grid_vdw_energy:          -22.709450
##########                      Grid_es_energy:           21.934973
##########           Internal_energy_repulsive:            8.638294

@<TRIPOS>MOLECULE
CIW_221_3NF7
 35 38 1 0 0
SMALL
USER_CHARGES


@<TRIPOS>ATOM
      1 C1         -1.9615  -28.6687   -6.1198 C.ar    1  <0>        -0.0416
      2 C2         -5.0027  -30.5268   -2.5318 C.ar    1  <0>        -0.0538
      3 C3         -3.1316  -28.8758   -5.4242 C.ar    1  <0>        -0.0386
      4 C4         -4.6451  -30.4745   -1.2019 C.ar    1  <0>        -0.0287
      5 C5         -2.2267  -30.7111   -7.3697 C.ar    1  <0>        -0.0380
      6 C6         -4.3500  -32.0422   -6.8050 C.3     1  <0>         0.0514
      7 C7         -5.0312  -27.6129    0.9045 C.3     1  <0>         0.1601
      8 C8         -5.9109  -29.5373   -4.5965 C.3     1  <0>         0.0455
      9 C9         -1.5240  -29.5639   -7.0646 C.ar    1  <0>         0.0414
     10 C10        -5.5792  -29.4198   -3.1558 C.ar    1  <0>        -0.0182
     11 C11        -3.8099  -30.0249   -5.7381 C.ar    1  <0>         0.0403
     12 C12        -4.9021  -29.2978   -0.5297 C.ar    1  <0>         0.1097
     13 C13        -3.3940  -30.9284   -6.6772 C.ar    1  <0>        -0.0158
     14 C14        -5.8341  -28.2372   -2.4744 C.ar    1  <0>         0.0346
     15 C15        -5.4757  -28.2297   -1.1564 C.ar    1  <0>         0.1181
     16 C16        -5.3710  -31.6683   -5.7648 C.2     1  <0>         0.2245
     17 C17        -6.4404  -26.9833   -3.0451 C.2     1  <0>         0.0745
     18 N1         -4.9960  -30.4550   -5.1972 N.am    1  <0>        -0.2665
     19 O1         -5.7942  -26.2195   -3.7979 O.co2   1  <0>        -0.5445
     20 O2         -6.3163  -32.3679   -5.4436 O.2     1  <0>        -0.2749
     21 O3         -7.6102  -26.7276   -2.6879 O.co2   1  <0>        -0.5445
     22 O4         -4.6293  -29.0030    0.8080 O.3     1  <0>        -0.3150
     23 O5         -5.6184  -27.1579   -0.3168 O.3     1  <0>        -0.3144
     24 Cl1        -0.0449  -29.2628   -7.8723 Cl      1  <0>        -0.0835
     25 H1         -1.3757  -27.7841   -5.9182 H       1  <0>         0.0633
     26 H2         -4.8354  -31.4325   -3.0959 H       1  <0>         0.0622
     27 H3         -3.4910  -28.1794   -4.6811 H       1  <0>         0.0637
     28 H4         -4.1841  -31.3171   -0.7080 H       1  <0>         0.0644
     29 H5         -1.8760  -31.4062   -8.1182 H       1  <0>         0.0635
     30 H6         -4.7845  -32.1072   -7.8135 H       1  <0>         0.0408
     31 H7         -3.8849  -33.0183   -6.6030 H       1  <0>         0.0408
     32 H8         -5.7689  -27.5108    1.7141 H       1  <0>         0.0880
     33 H9         -4.1442  -27.0001    1.1232 H       1  <0>         0.0880
     34 H10        -6.9404  -29.9069   -4.7133 H       1  <0>         0.0518
     35 H11        -5.8241  -28.5534   -5.0807 H       1  <0>         0.0518
@<TRIPOS>BOND
     1     1     3   ar
     2     1     9   ar
     3     2     4   ar
     4     2    10   ar
     5     3    11   ar
     6     4    12   ar
     7     5     9   ar
     8     5    13   ar
     9     6    13    1
    10     6    16    1
    11     7    22    1
    12     7    23    1
    13     8    10    1
    14     8    18    1
    15     9    24    1
    16    10    14   ar
    17    11    13   ar
    18    11    18    1
    19    12    15   ar
    20    12    22    1
    21    14    15   ar
    22    14    17    1
    23    15    23    1
    24    16    18   am
    25    16    20    2
    26    17    19    1
    27    17    21    2
    28     1    25    1
    29     2    26    1
    30     3    27    1
    31     4    28    1
    32     5    29    1
    33     6    30    1
    34     6    31    1
    35     7    32    1
    36     7    33    1
    37     8    34    1
    38     8    35    1
@<TRIPOS>SUBSTRUCTURE
     1 <0>         1 TEMP              0 ****  ****    0 ROOT

