
##########                                Name:        CIW_221_3NF7
##########                    Molecular_Weight:             344.731
##########                DOCK_Rotatable_Bonds:                   3
##########                       Formal_Charge:             -0.9996
##########                     HBond_Acceptors:                   7
##########                        HBond_Donors:                   0
##########                         Heavy_Atoms:                  24
##########                            HA_RMSDs:               7.440
##########                            HA_RMSDh:               7.142
##########                            HA_RMSDm:               6.406
##########                          Grid_Score:            1.407301
##########                     Grid_vdw_energy:          -23.250505
##########                      Grid_es_energy:           24.657806
##########           Internal_energy_repulsive:           14.759806

@<TRIPOS>MOLECULE
CIW_221_3NF7
 35 38 1 0 0
SMALL
USER_CHARGES


@<TRIPOS>ATOM
      1 C1         10.3032  -25.1715  -11.4854 C.ar    1  <0>        -0.0416
      2 C2          8.0385  -20.9729  -10.8675 C.ar    1  <0>        -0.0538
      3 C3          9.3438  -24.2114  -11.7177 C.ar    1  <0>        -0.0386
      4 C4          8.5635  -19.7058  -10.7325 C.ar    1  <0>        -0.0287
      5 C5          9.0579  -26.1137   -9.6509 C.ar    1  <0>        -0.0380
      6 C6          6.8192  -24.9498   -9.1686 C.3     1  <0>         0.0514
      7 C7          8.2678  -17.1041  -13.1653 C.3     1  <0>         0.1601
      8 C8          6.8030  -22.7125  -12.0981 C.3     1  <0>         0.0455
      9 C9         10.1612  -26.0944  -10.4787 C.ar    1  <0>         0.0414
     10 C10         7.3125  -21.3227  -12.0068 C.ar    1  <0>        -0.0182
     11 C11         8.2598  -24.2445  -10.8793 C.ar    1  <0>         0.0403
     12 C12         8.3192  -18.8140  -11.7560 C.ar    1  <0>         0.1097
     13 C13         8.0969  -25.1562   -9.8725 C.ar    1  <0>        -0.0158
     14 C14         7.0712  -20.4210  -13.0347 C.ar    1  <0>         0.0346
     15 C15         7.5983  -19.1735  -12.8577 C.ar    1  <0>         0.1181
     16 C16         6.2782  -23.7490   -9.8964 C.2     1  <0>         0.2245
     17 C17         6.3131  -20.6898  -14.3070 C.2     1  <0>         0.0745
     18 N1          7.1718  -23.4080  -10.9063 N.am    1  <0>        -0.2665
     19 O1          6.5954  -21.6540  -15.0541 O.co2   1  <0>        -0.5445
     20 O2          5.2624  -23.1524   -9.5828 O.2     1  <0>        -0.2749
     21 O3          5.4158  -19.8690  -14.5949 O.co2   1  <0>        -0.5445
     22 O4          8.7452  -17.4872  -11.8505 O.3     1  <0>        -0.3150
     23 O5          7.4961  -18.1497  -13.7607 O.3     1  <0>        -0.3144
     24 Cl1        11.4050  -27.2425  -10.2229 Cl      1  <0>        -0.0835
     25 H1         11.1854  -25.1991  -12.1077 H       1  <0>         0.0633
     26 H2          8.1902  -21.7014  -10.0848 H       1  <0>         0.0622
     27 H3          9.4390  -23.4812  -12.5077 H       1  <0>         0.0637
     28 H4          9.1404  -19.4237   -9.8642 H       1  <0>         0.0644
     29 H5          8.9540  -26.8472   -8.8651 H       1  <0>         0.0635
     30 H6          6.1529  -25.8216   -9.2463 H       1  <0>         0.0408
     31 H7          6.9592  -24.7600   -8.0942 H       1  <0>         0.0408
     32 H8          7.6377  -16.2076  -13.0681 H       1  <0>         0.0880
     33 H9          9.1330  -16.8888  -13.8096 H       1  <0>         0.0880
     34 H10         5.7078  -22.7023  -12.2001 H       1  <0>         0.0518
     35 H11         7.2418  -23.2138  -12.9734 H       1  <0>         0.0518
@<TRIPOS>BOND
     1     1     3   ar
     2     1     9   ar
     3     2     4   ar
     4     2    10   ar
     5     3    11   ar
     6     4    12   ar
     7     5     9   ar
     8     5    13   ar
     9     6    13    1
    10     6    16    1
    11     7    22    1
    12     7    23    1
    13     8    10    1
    14     8    18    1
    15     9    24    1
    16    10    14   ar
    17    11    13   ar
    18    11    18    1
    19    12    15   ar
    20    12    22    1
    21    14    15   ar
    22    14    17    1
    23    15    23    1
    24    16    18   am
    25    16    20    2
    26    17    19    1
    27    17    21    2
    28     1    25    1
    29     2    26    1
    30     3    27    1
    31     4    28    1
    32     5    29    1
    33     6    30    1
    34     6    31    1
    35     7    32    1
    36     7    33    1
    37     8    34    1
    38     8    35    1
@<TRIPOS>SUBSTRUCTURE
     1 <0>         1 TEMP              0 ****  ****    0 ROOT

