
##########                                Name:        CIW_221_3NF7
##########                    Molecular_Weight:             344.731
##########                DOCK_Rotatable_Bonds:                   3
##########                       Formal_Charge:             -0.9996
##########                     HBond_Acceptors:                   7
##########                        HBond_Donors:                   0
##########                         Heavy_Atoms:                  24
##########                            HA_RMSDs:               7.274
##########                            HA_RMSDh:               6.667
##########                            HA_RMSDm:               5.685
##########                          Grid_Score:            0.263172
##########                     Grid_vdw_energy:          -27.226730
##########                      Grid_es_energy:           27.489902
##########           Internal_energy_repulsive:           13.976569

@<TRIPOS>MOLECULE
CIW_221_3NF7
 35 38 1 0 0
SMALL
USER_CHARGES


@<TRIPOS>ATOM
      1 C1          9.4703  -24.9873  -10.5897 C.ar    1  <0>        -0.0416
      2 C2          5.9473  -22.6472   -9.1235 C.ar    1  <0>        -0.0538
      3 C3          8.1678  -24.5409  -10.5968 C.ar    1  <0>        -0.0386
      4 C4          6.3421  -21.3861   -8.7321 C.ar    1  <0>        -0.0287
      5 C5          8.8611  -27.0530   -9.5102 C.ar    1  <0>        -0.0380
      6 C6          6.3526  -27.3013   -9.0150 C.3     1  <0>         0.0514
      7 C7          6.6130  -18.5645  -10.9092 C.3     1  <0>         0.1601
      8 C8          5.2115  -24.2885  -10.8062 C.3     1  <0>         0.0455
      9 C9          9.8039  -26.2092  -10.0595 C.ar    1  <0>         0.0414
     10 C10         5.5973  -22.9014  -10.4502 C.ar    1  <0>        -0.0182
     11 C11         7.2487  -25.3919  -10.0398 C.ar    1  <0>         0.0403
     12 C12         6.3524  -20.4040   -9.7005 C.ar    1  <0>         0.1097
     13 C13         7.5585  -26.6139   -9.5089 C.ar    1  <0>        -0.0158
     14 C14         5.6112  -21.9090  -11.4211 C.ar    1  <0>         0.0346
     15 C15         5.9971  -20.6715  -10.9907 C.ar    1  <0>         0.1181
     16 C16         5.2935  -26.2724   -9.3047 C.2     1  <0>         0.2245
     17 C17         5.2640  -22.0703  -12.8768 C.2     1  <0>         0.0745
     18 N1          5.8958  -25.1864   -9.9313 N.am    1  <0>        -0.2665
     19 O1          5.7968  -22.9505  -13.5903 O.co2   1  <0>        -0.5445
     20 O2          4.1261  -26.3707   -8.9677 O.2     1  <0>        -0.2749
     21 O3          4.4468  -21.2465  -13.3406 O.co2   1  <0>        -0.5445
     22 O4          6.7148  -19.0634   -9.5512 O.3     1  <0>        -0.3150
     23 O5          6.1017  -19.5662  -11.7916 O.3     1  <0>        -0.3144
     24 Cl1        11.4464  -26.6919  -10.0541 Cl      1  <0>        -0.0835
     25 H1         10.2455  -24.3635  -11.0097 H       1  <0>         0.0633
     26 H2          5.9084  -23.4454   -8.3971 H       1  <0>         0.0622
     27 H3          7.8889  -23.5844  -11.0134 H       1  <0>         0.0637
     28 H4          6.6306  -21.1763   -7.7127 H       1  <0>         0.0644
     29 H5          9.1337  -28.0142   -9.1001 H       1  <0>         0.0635
     30 H6          6.1680  -28.2509   -9.5387 H       1  <0>         0.0408
     31 H7          6.4183  -27.5443   -7.9442 H       1  <0>         0.0408
     32 H8          5.9336  -17.6994  -10.9208 H       1  <0>         0.0880
     33 H9          7.6131  -18.2631  -11.2539 H       1  <0>         0.0880
     34 H10         4.1244  -24.4139  -10.6935 H       1  <0>         0.0518
     35 H11         5.4921  -24.4977  -11.8491 H       1  <0>         0.0518
@<TRIPOS>BOND
     1     1     3   ar
     2     1     9   ar
     3     2     4   ar
     4     2    10   ar
     5     3    11   ar
     6     4    12   ar
     7     5     9   ar
     8     5    13   ar
     9     6    13    1
    10     6    16    1
    11     7    22    1
    12     7    23    1
    13     8    10    1
    14     8    18    1
    15     9    24    1
    16    10    14   ar
    17    11    13   ar
    18    11    18    1
    19    12    15   ar
    20    12    22    1
    21    14    15   ar
    22    14    17    1
    23    15    23    1
    24    16    18   am
    25    16    20    2
    26    17    19    1
    27    17    21    2
    28     1    25    1
    29     2    26    1
    30     3    27    1
    31     4    28    1
    32     5    29    1
    33     6    30    1
    34     6    31    1
    35     7    32    1
    36     7    33    1
    37     8    34    1
    38     8    35    1
@<TRIPOS>SUBSTRUCTURE
     1 <0>         1 TEMP              0 ****  ****    0 ROOT

