
##########                                Name:        CIW_221_3NF7
##########                    Molecular_Weight:             344.731
##########                DOCK_Rotatable_Bonds:                   3
##########                       Formal_Charge:             -0.9996
##########                     HBond_Acceptors:                   7
##########                        HBond_Donors:                   0
##########                         Heavy_Atoms:                  24
##########                            HA_RMSDs:               7.395
##########                            HA_RMSDh:               6.361
##########                            HA_RMSDm:               5.703
##########                          Grid_Score:            0.979334
##########                     Grid_vdw_energy:          -27.787142
##########                      Grid_es_energy:           28.766476
##########           Internal_energy_repulsive:           12.551562

@<TRIPOS>MOLECULE
CIW_221_3NF7
 35 38 1 0 0
SMALL
USER_CHARGES


@<TRIPOS>ATOM
      1 C1         11.1447  -24.9977  -12.4228 C.ar    1  <0>        -0.0416
      2 C2          7.5993  -22.5232   -9.5385 C.ar    1  <0>        -0.0538
      3 C3          9.8981  -24.5539  -12.0418 C.ar    1  <0>        -0.0386
      4 C4          7.5469  -21.2144   -9.1098 C.ar    1  <0>        -0.0287
      5 C5         11.2155  -26.6276  -10.6502 C.ar    1  <0>        -0.0380
      6 C6          9.1264  -26.6737   -9.1559 C.3     1  <0>         0.0514
      7 C7          5.8614  -18.5706  -10.8256 C.3     1  <0>         0.1601
      8 C8          7.0762  -24.3300  -11.1287 C.3     1  <0>         0.0455
      9 C9         11.7827  -26.0058  -11.7430 C.ar    1  <0>         0.0414
     10 C10         6.9520  -22.9121  -10.7120 C.ar    1  <0>        -0.0182
     11 C11         9.3564  -25.1806  -10.9495 C.ar    1  <0>         0.0403
     12 C12         6.8169  -20.3320   -9.8785 C.ar    1  <0>         0.1097
     13 C13         9.9730  -26.1882  -10.2597 C.ar    1  <0>        -0.0158
     14 C14         6.2199  -22.0189  -11.4827 C.ar    1  <0>         0.0346
     15 C15         6.1831  -20.7350  -11.0181 C.ar    1  <0>         0.1181
     16 C16         7.9340  -25.7647   -9.2840 C.2     1  <0>         0.2245
     17 C17         5.4922  -22.3237  -12.7646 C.2     1  <0>         0.0745
     18 N1          8.1333  -24.9303  -10.3789 N.am    1  <0>        -0.2665
     19 O1          6.1011  -22.6412  -13.8115 O.co2   1  <0>        -0.5445
     20 O2          7.0005  -25.7373   -8.5005 O.2     1  <0>        -0.2749
     21 O3          4.2493  -22.1980  -12.7332 O.co2   1  <0>        -0.5445
     22 O4          6.6209  -18.9673   -9.6555 O.3     1  <0>        -0.3150
     23 O5          5.5395  -19.6997  -11.6409 O.3     1  <0>        -0.3144
     24 Cl1        13.3447  -26.4901  -12.2495 Cl      1  <0>        -0.0835
     25 H1         11.6305  -24.5436  -13.2737 H       1  <0>         0.0633
     26 H2          8.1460  -23.2541   -8.9612 H       1  <0>         0.0622
     27 H3          9.3818  -23.7649  -12.5682 H       1  <0>         0.0637
     28 H4          8.0548  -20.8940   -8.2122 H       1  <0>         0.0644
     29 H5         11.7241  -27.4229  -10.1256 H       1  <0>         0.0635
     30 H6          8.8581  -27.7344   -9.2695 H       1  <0>         0.0408
     31 H7          9.6204  -26.5807   -8.1775 H       1  <0>         0.0408
     32 H8          4.9276  -18.0901  -10.4980 H       1  <0>         0.0880
     33 H9          6.4618  -17.8637  -11.4171 H       1  <0>         0.0880
     34 H10         6.1324  -24.8603  -10.9331 H       1  <0>         0.0518
     35 H11         7.3039  -24.3843  -12.2036 H       1  <0>         0.0518
@<TRIPOS>BOND
     1     1     3   ar
     2     1     9   ar
     3     2     4   ar
     4     2    10   ar
     5     3    11   ar
     6     4    12   ar
     7     5     9   ar
     8     5    13   ar
     9     6    13    1
    10     6    16    1
    11     7    22    1
    12     7    23    1
    13     8    10    1
    14     8    18    1
    15     9    24    1
    16    10    14   ar
    17    11    13   ar
    18    11    18    1
    19    12    15   ar
    20    12    22    1
    21    14    15   ar
    22    14    17    1
    23    15    23    1
    24    16    18   am
    25    16    20    2
    26    17    19    1
    27    17    21    2
    28     1    25    1
    29     2    26    1
    30     3    27    1
    31     4    28    1
    32     5    29    1
    33     6    30    1
    34     6    31    1
    35     7    32    1
    36     7    33    1
    37     8    34    1
    38     8    35    1
@<TRIPOS>SUBSTRUCTURE
     1 <0>         1 TEMP              0 ****  ****    0 ROOT

