
##########                                Name:        CIW_221_3NF7
##########                    Molecular_Weight:             344.731
##########                DOCK_Rotatable_Bonds:                   3
##########                       Formal_Charge:             -0.9996
##########                     HBond_Acceptors:                   7
##########                        HBond_Donors:                   0
##########                         Heavy_Atoms:                  24
##########                            HA_RMSDs:               7.713
##########                            HA_RMSDh:               6.799
##########                            HA_RMSDm:               6.222
##########                          Grid_Score:           -2.139927
##########                     Grid_vdw_energy:          -25.767479
##########                      Grid_es_energy:           23.627552
##########           Internal_energy_repulsive:           12.768954

@<TRIPOS>MOLECULE
CIW_221_3NF7
 35 38 1 0 0
SMALL
USER_CHARGES


@<TRIPOS>ATOM
      1 C1          9.6476  -25.8134  -11.1607 C.ar    1  <0>        -0.0416
      2 C2          8.5721  -26.2502  -15.6976 C.ar    1  <0>        -0.0538
      3 C3          9.5782  -25.4228  -12.4793 C.ar    1  <0>        -0.0386
      4 C4          7.4511  -26.7728  -16.3057 C.ar    1  <0>        -0.0287
      5 C5         11.7767  -26.8918  -11.4889 C.ar    1  <0>        -0.0380
      6 C6         12.6964  -26.7363  -13.8825 C.3     1  <0>         0.0514
      7 C7          5.2944  -24.9653  -18.5094 C.3     1  <0>         0.1601
      8 C8         10.1560  -24.4250  -15.2211 C.3     1  <0>         0.0455
      9 C9         10.7179  -26.5285  -10.6828 C.ar    1  <0>         0.0414
     10 C10         8.9566  -24.9295  -15.9328 C.ar    1  <0>        -0.0182
     11 C11        10.6371  -25.8005  -13.2637 C.ar    1  <0>         0.0403
     12 C12         6.7558  -25.9412  -17.1586 C.ar    1  <0>         0.1097
     13 C13        11.7141  -26.5101  -12.8079 C.ar    1  <0>        -0.0158
     14 C14         8.2515  -24.0966  -16.7913 C.ar    1  <0>         0.0346
     15 C15         7.1543  -24.6553  -17.3824 C.ar    1  <0>         0.1181
     16 C16        12.0063  -26.0814  -15.0483 C.2     1  <0>         0.2245
     17 C17         8.5676  -22.6601  -17.1114 C.2     1  <0>         0.0745
     18 N1         10.8105  -25.5313  -14.5986 N.am    1  <0>        -0.2665
     19 O1          8.1857  -21.7196  -16.3784 O.co2   1  <0>        -0.5445
     20 O2         12.4153  -26.1096  -16.1964 O.2     1  <0>        -0.2749
     21 O3          9.1946  -22.4598  -18.1736 O.co2   1  <0>        -0.5445
     22 O4          5.5977  -26.2368  -17.8813 O.3     1  <0>        -0.3150
     23 O5          6.3124  -23.9987  -18.2392 O.3     1  <0>        -0.3144
     24 Cl1        10.7285  -27.0097   -9.0399 Cl      1  <0>        -0.0835
     25 H1          8.8437  -25.5519  -10.4887 H       1  <0>         0.0633
     26 H2          9.1580  -26.8681  -15.0333 H       1  <0>         0.0622
     27 H3          8.7453  -24.8569  -12.8694 H       1  <0>         0.0637
     28 H4          7.1315  -27.7880  -16.1226 H       1  <0>         0.0644
     29 H5         12.6160  -27.4503  -11.1016 H       1  <0>         0.0635
     30 H6         13.6714  -26.2774  -13.6617 H       1  <0>         0.0408
     31 H7         12.8879  -27.8055  -14.0563 H       1  <0>         0.0408
     32 H8          5.2236  -25.1133  -19.5971 H       1  <0>         0.0880
     33 H9          4.3368  -24.5933  -18.1164 H       1  <0>         0.0880
     34 H10        10.8384  -23.9422  -15.9362 H       1  <0>         0.0518
     35 H11         9.8559  -23.6916  -14.4581 H       1  <0>         0.0518
@<TRIPOS>BOND
     1     1     3   ar
     2     1     9   ar
     3     2     4   ar
     4     2    10   ar
     5     3    11   ar
     6     4    12   ar
     7     5     9   ar
     8     5    13   ar
     9     6    13    1
    10     6    16    1
    11     7    22    1
    12     7    23    1
    13     8    10    1
    14     8    18    1
    15     9    24    1
    16    10    14   ar
    17    11    13   ar
    18    11    18    1
    19    12    15   ar
    20    12    22    1
    21    14    15   ar
    22    14    17    1
    23    15    23    1
    24    16    18   am
    25    16    20    2
    26    17    19    1
    27    17    21    2
    28     1    25    1
    29     2    26    1
    30     3    27    1
    31     4    28    1
    32     5    29    1
    33     6    30    1
    34     6    31    1
    35     7    32    1
    36     7    33    1
    37     8    34    1
    38     8    35    1
@<TRIPOS>SUBSTRUCTURE
     1 <0>         1 TEMP              0 ****  ****    0 ROOT

