
##########                                Name:        CIW_221_3NF7
##########                    Molecular_Weight:             344.731
##########                DOCK_Rotatable_Bonds:                   3
##########                       Formal_Charge:             -0.9996
##########                     HBond_Acceptors:                   7
##########                        HBond_Donors:                   0
##########                         Heavy_Atoms:                  24
##########                            HA_RMSDs:              13.952
##########                            HA_RMSDh:              13.199
##########                            HA_RMSDm:              11.788
##########                          Grid_Score:           -2.708757
##########                     Grid_vdw_energy:          -31.374599
##########                      Grid_es_energy:           28.665842
##########           Internal_energy_repulsive:           10.296663

@<TRIPOS>MOLECULE
CIW_221_3NF7
 35 38 1 0 0
SMALL
USER_CHARGES


@<TRIPOS>ATOM
      1 C1          1.7152  -29.5764   -8.6244 C.ar    1  <0>        -0.0416
      2 C2         -2.9170  -30.5303   -6.1639 C.ar    1  <0>        -0.0538
      3 C3          0.3582  -29.7393   -8.4569 C.ar    1  <0>        -0.0386
      4 C4         -3.3241  -29.8698   -5.0248 C.ar    1  <0>        -0.0287
      5 C5          2.1082  -31.9524   -8.5654 C.ar    1  <0>        -0.0380
      6 C6         -0.0075  -33.3791   -8.2690 C.3     1  <0>         0.0514
      7 C7         -4.4788  -26.4887   -4.9285 C.3     1  <0>         0.1601
      8 C8         -2.4694  -30.6536   -8.5829 C.3     1  <0>         0.0455
      9 C9          2.5633  -30.6550   -8.6757 C.ar    1  <0>         0.0414
     10 C10        -2.9510  -29.8925   -7.4046 C.ar    1  <0>        -0.0182
     11 C11        -0.0713  -31.0361   -8.3424 C.ar    1  <0>         0.0403
     12 C12        -3.7774  -28.5762   -5.1788 C.ar    1  <0>         0.1097
     13 C13         0.7553  -32.1248   -8.3935 C.ar    1  <0>        -0.0158
     14 C14        -3.4067  -28.5894   -7.5531 C.ar    1  <0>         0.0346
     15 C15        -3.8116  -27.9739   -6.4030 C.ar    1  <0>         0.1181
     16 C16        -1.4063  -32.8516   -8.0973 C.2     1  <0>         0.2245
     17 C17        -3.4789  -27.8026   -8.8343 C.2     1  <0>         0.0745
     18 N1         -1.3652  -31.4635   -8.1769 N.am    1  <0>        -0.2665
     19 O1         -2.4740  -27.6267   -9.5601 O.co2   1  <0>        -0.5445
     20 O2         -2.3798  -33.5445   -7.8560 O.2     1  <0>        -0.2749
     21 O3         -4.5896  -27.2991   -9.1072 O.co2   1  <0>        -0.5445
     22 O4         -4.2347  -27.7091   -4.1839 O.3     1  <0>        -0.3150
     23 O5         -4.2696  -26.6860   -6.3287 O.3     1  <0>        -0.3144
     24 Cl1         4.2439  -30.3824   -8.8551 Cl      1  <0>        -0.0835
     25 H1          2.1207  -28.5798   -8.7172 H       1  <0>         0.0633
     26 H2         -2.5686  -31.5502   -6.0956 H       1  <0>         0.0622
     27 H3         -0.3222  -28.9016   -8.4184 H       1  <0>         0.0637
     28 H4         -3.2898  -30.3439   -4.0551 H       1  <0>         0.0644
     29 H5          2.7835  -32.7940   -8.6120 H       1  <0>         0.0635
     30 H6          0.0921  -34.0196   -9.1577 H       1  <0>         0.0408
     31 H7          0.3197  -33.9846   -7.4109 H       1  <0>         0.0408
     32 H8         -5.5201  -26.1740   -4.7648 H       1  <0>         0.0880
     33 H9         -3.7890  -25.7097   -4.5716 H       1  <0>         0.0880
     34 H10        -3.2774  -31.2917   -8.9704 H       1  <0>         0.0518
     35 H11        -2.1506  -29.9568   -9.3721 H       1  <0>         0.0518
@<TRIPOS>BOND
     1     1     3   ar
     2     1     9   ar
     3     2     4   ar
     4     2    10   ar
     5     3    11   ar
     6     4    12   ar
     7     5     9   ar
     8     5    13   ar
     9     6    13    1
    10     6    16    1
    11     7    22    1
    12     7    23    1
    13     8    10    1
    14     8    18    1
    15     9    24    1
    16    10    14   ar
    17    11    13   ar
    18    11    18    1
    19    12    15   ar
    20    12    22    1
    21    14    15   ar
    22    14    17    1
    23    15    23    1
    24    16    18   am
    25    16    20    2
    26    17    19    1
    27    17    21    2
    28     1    25    1
    29     2    26    1
    30     3    27    1
    31     4    28    1
    32     5    29    1
    33     6    30    1
    34     6    31    1
    35     7    32    1
    36     7    33    1
    37     8    34    1
    38     8    35    1
@<TRIPOS>SUBSTRUCTURE
     1 <0>         1 TEMP              0 ****  ****    0 ROOT

