
##########                                Name:        547_201_2OF2
##########                    Molecular_Weight:             400.523
##########                DOCK_Rotatable_Bonds:                   6
##########                       Formal_Charge:              2.0009
##########                     HBond_Acceptors:                   5
##########                        HBond_Donors:                   4
##########                         Heavy_Atoms:                  30
##########                            HA_RMSDs:               0.492
##########                            HA_RMSDh:               0.492
##########                            HA_RMSDm:               0.492
##########                          Grid_Score:         -163.520828
##########                     Grid_vdw_energy:          -47.515640
##########                      Grid_es_energy:         -116.005188
##########           Internal_energy_repulsive:           12.692056

@<TRIPOS>MOLECULE
547_201_2OF2
 58 62 1 0 0
SMALL
USER_CHARGES


@<TRIPOS>ATOM
      1 C1         27.1787   41.3627   86.3561 C.ar    1  <0>        -0.0617
      2 C2         31.6531   37.5216   82.3702 C.ar    1  <0>        -0.0617
      3 C3         27.3076   41.4617   84.9207 C.ar    1  <0>        -0.0612
      4 C4         26.7948   40.1179   86.9830 C.ar    1  <0>        -0.0612
      5 C5         30.9401   36.4072   81.7844 C.ar    1  <0>        -0.0611
      6 C6         30.9717   38.4731   83.1943 C.ar    1  <0>        -0.0611
      7 C7         27.0582   40.3115   84.1040 C.ar    1  <0>        -0.0539
      8 C8         26.5474   38.9696   86.1633 C.ar    1  <0>        -0.0539
      9 C9         29.5314   36.2522   82.0173 C.ar    1  <0>        -0.0521
     10 C10        29.5779   38.3111   83.4230 C.ar    1  <0>        -0.0521
     11 C11        22.7899   36.6035   83.8328 C.ar    1  <0>        -0.0219
     12 C12        23.0575   35.5215   82.9549 C.ar    1  <0>         0.0322
     13 C13        23.9241   43.5993   85.6737 C.3     1  <0>         0.0077
     14 C14        23.3952   42.6402   83.4530 C.3     1  <0>         0.0077
     15 C15        23.0809   42.4911   86.3318 C.3     1  <0>         0.0094
     16 C16        22.5208   41.5681   84.1389 C.3     1  <0>         0.0094
     17 C17        22.3482   38.8394   85.6690 C.3     1  <0>         0.0492
     18 C18        22.2489   40.2735   86.1971 C.3     1  <0>        -0.0156
     19 C19        26.6795   39.0714   84.7239 C.ar    1  <0>        -0.0146
     20 C20        28.8380   37.2035   82.8410 C.ar    1  <0>         0.0062
     21 C21        23.8640   37.4818   84.2260 C.ar    1  <0>         0.0407
     22 C22        25.2124   37.2215   83.7135 C.ar    1  <0>         0.0556
     23 C23        26.4333   37.8641   83.8966 C.2     1  <0>         0.0262
     24 C24        27.3662   37.0189   83.0522 C.2     1  <0>         0.1005
     25 C25        25.3873   36.1149   82.8490 C.ar    1  <0>         0.1828
     26 N1         24.3184   35.2996   82.5038 N.ar    1  <0>        -0.2309
     27 N2         23.3917   43.8707   84.3057 N.4     1  <0>         0.2345
     28 N3         23.6470   38.5454   85.0771 N.pl3   1  <0>        -0.3381
     29 N4         23.0883   41.2686   85.4834 N.4     1  <0>         0.2438
     30 O1         26.6796   35.9804   82.4543 O.3     1  <0>        -0.2890
     31 H1         27.3717   42.2305   86.9693 H       1  <0>         0.0618
     32 H2         32.7106   37.6367   82.1838 H       1  <0>         0.0618
     33 H3         27.5908   42.3991   84.4651 H       1  <0>         0.0618
     34 H4         26.6957   40.0544   88.0566 H       1  <0>         0.0618
     35 H5         31.4676   35.6914   81.1714 H       1  <0>         0.0618
     36 H6         31.5077   39.3006   83.6352 H       1  <0>         0.0618
     37 H7         27.1540   40.3758   83.0302 H       1  <0>         0.0624
     38 H8         26.2636   38.0313   86.6165 H       1  <0>         0.0624
     39 H9         28.9961   35.4247   81.5756 H       1  <0>         0.0624
     40 H10        29.0575   39.0265   84.0425 H       1  <0>         0.0624
     41 H11        21.7890   36.7681   84.2038 H       1  <0>         0.0651
     42 H12        22.2536   34.8708   82.6439 H       1  <0>         0.0831
     43 H13        23.8674   44.5152   86.2802 H       1  <0>         0.0867
     44 H14        24.9721   43.2728   85.6036 H       1  <0>         0.0867
     45 H15        24.4239   42.2669   83.3414 H       1  <0>         0.0867
     46 H16        22.9869   42.8743   82.4588 H       1  <0>         0.0867
     47 H17        23.5046   42.2506   87.3180 H       1  <0>         0.0868
     48 H18        22.0458   42.8446   86.4491 H       1  <0>         0.0868
     49 H19        21.4924   41.9433   84.2468 H       1  <0>         0.0868
     50 H20        22.5116   40.6527   83.5291 H       1  <0>         0.0868
     51 H21        22.1852   38.1481   86.5090 H       1  <0>         0.0514
     52 H22        21.5759   38.6990   84.8984 H       1  <0>         0.0514
     53 H23        21.2004   40.5920   86.1004 H       1  <0>         0.0830
     54 H24        22.5671   40.2634   87.2499 H       1  <0>         0.0830
     55 H25        22.4515   44.2014   84.3875 H       1  <0>         0.2018
     56 H26        23.9655   44.5642   83.8702 H       1  <0>         0.2018
     57 H27        23.8816   39.3585   84.5444 H       1  <0>         0.1463
     58 H28        24.0161   40.9249   85.3388 H       1  <0>         0.2038
@<TRIPOS>BOND
     1     1     3   ar
     2     1     4   ar
     3     2     5   ar
     4     2     6   ar
     5     3     7   ar
     6     4     8   ar
     7     5     9   ar
     8     6    10   ar
     9     7    19   ar
    10     8    19   ar
    11     9    20   ar
    12    10    20   ar
    13    11    12   ar
    14    11    21   ar
    15    12    26   ar
    16    13    15    1
    17    13    27    1
    18    14    16    1
    19    14    27    1
    20    15    29    1
    21    16    29    1
    22    17    18    1
    23    17    28    1
    24    18    29    1
    25    19    23    1
    26    20    24    1
    27    21    22   ar
    28    21    28    1
    29    22    23    1
    30    22    25   ar
    31    23    24    2
    32    24    30    1
    33    25    26   ar
    34    25    30    1
    35     1    31    1
    36     2    32    1
    37     3    33    1
    38     4    34    1
    39     5    35    1
    40     6    36    1
    41     7    37    1
    42     8    38    1
    43     9    39    1
    44    10    40    1
    45    11    41    1
    46    12    42    1
    47    13    43    1
    48    13    44    1
    49    14    45    1
    50    14    46    1
    51    15    47    1
    52    15    48    1
    53    16    49    1
    54    16    50    1
    55    17    51    1
    56    17    52    1
    57    18    53    1
    58    18    54    1
    59    27    55    1
    60    27    56    1
    61    28    57    1
    62    29    58    1
@<TRIPOS>SUBSTRUCTURE
     1 <0>         1 TEMP              0 ****  ****    0 ROOT

