
##########                                Name:        547_201_2OF2
##########                    Molecular_Weight:             400.523
##########                DOCK_Rotatable_Bonds:                   6
##########                       Formal_Charge:              2.0009
##########                     HBond_Acceptors:                   5
##########                        HBond_Donors:                   4
##########                         Heavy_Atoms:                  30
##########                            HA_RMSDs:               5.137
##########                            HA_RMSDh:               4.585
##########                            HA_RMSDm:               3.665
##########                          Grid_Score:         -166.061020
##########                     Grid_vdw_energy:          -51.200199
##########                      Grid_es_energy:         -114.860817
##########           Internal_energy_repulsive:            5.882204

@<TRIPOS>MOLECULE
547_201_2OF2
 58 62 1 0 0
SMALL
USER_CHARGES


@<TRIPOS>ATOM
      1 C1         21.4858   41.2010   86.5117 C.ar    1  <0>        -0.0617
      2 C2         27.7296   44.5066   85.8056 C.ar    1  <0>        -0.0617
      3 C3         21.6052   41.2599   85.0733 C.ar    1  <0>        -0.0612
      4 C4         22.5656   40.6903   87.3261 C.ar    1  <0>        -0.0612
      5 C5         28.6114   43.3694   85.9561 C.ar    1  <0>        -0.0611
      6 C6         26.4314   44.3526   85.2228 C.ar    1  <0>        -0.0611
      7 C7         22.8106   40.8127   84.4416 C.ar    1  <0>        -0.0539
      8 C8         23.7698   40.2452   86.6911 C.ar    1  <0>        -0.0539
      9 C9         28.1927   42.0705   85.5086 C.ar    1  <0>        -0.0521
     10 C10        26.0229   43.0631   84.7851 C.ar    1  <0>        -0.0521
     11 C11        25.0708   36.3192   83.0784 C.ar    1  <0>        -0.0219
     12 C12        26.4120   36.3630   82.6178 C.ar    1  <0>         0.0322
     13 C13        18.5149   38.9793   86.0852 C.3     1  <0>         0.0077
     14 C14        18.4372   37.6173   84.0188 C.3     1  <0>         0.0077
     15 C15        19.7034   38.1318   86.5763 C.3     1  <0>         0.0094
     16 C16        19.6011   36.7573   84.5576 C.3     1  <0>         0.0094
     17 C17        22.6460   36.3494   84.9904 C.3     1  <0>         0.0492
     18 C18        21.5819   36.8054   85.9929 C.3     1  <0>        -0.0156
     19 C19        23.8875   40.3074   85.2482 C.ar    1  <0>        -0.0146
     20 C20        26.8925   41.9061   84.9199 C.ar    1  <0>         0.0062
     21 C21        24.5206   37.4570   83.7730 C.ar    1  <0>         0.0407
     22 C22        25.3731   38.6284   83.9953 C.ar    1  <0>         0.0556
     23 C23        25.1509   39.8551   84.6142 C.2     1  <0>         0.0262
     24 C24        26.4934   40.5399   84.4519 C.2     1  <0>         0.1005
     25 C25        26.7006   38.5804   83.5074 C.ar    1  <0>         0.1828
     26 N1         27.1806   37.4582   82.8466 N.ar    1  <0>        -0.2309
     27 N2         17.6622   38.1489   85.1842 N.4     1  <0>         0.2345
     28 N3         23.2215   37.4559   84.2368 N.pl3   1  <0>        -0.3381
     29 N4         20.4734   37.6069   85.4160 N.4     1  <0>         0.2438
     30 O1         27.3834   39.7207   83.7854 O.3     1  <0>        -0.2890
     31 H1         20.5774   41.5431   86.9851 H       1  <0>         0.0618
     32 H2         28.0544   45.4820   86.1366 H       1  <0>         0.0618
     33 H3         20.7890   41.6396   84.4765 H       1  <0>         0.0618
     34 H4         22.4655   40.6450   88.4005 H       1  <0>         0.0618
     35 H5         29.5851   43.4974   86.4053 H       1  <0>         0.0618
     36 H6         25.7730   45.2022   85.1171 H       1  <0>         0.0618
     37 H7         22.9095   40.8549   83.3670 H       1  <0>         0.0624
     38 H8         24.5872   39.8647   87.2857 H       1  <0>         0.0624
     39 H9         28.8520   41.2216   85.6141 H       1  <0>         0.0624
     40 H10        25.0452   42.9404   84.3430 H       1  <0>         0.0624
     41 H11        24.4663   35.4402   82.9100 H       1  <0>         0.0651
     42 H12        26.8238   35.5204   82.0823 H       1  <0>         0.0831
     43 H13        17.9211   39.3166   86.9475 H       1  <0>         0.0867
     44 H14        18.8889   39.8554   85.5351 H       1  <0>         0.0867
     45 H15        18.8351   38.4524   83.4235 H       1  <0>         0.0867
     46 H16        17.7819   37.0025   83.3843 H       1  <0>         0.0867
     47 H17        20.3630   38.7571   87.1960 H       1  <0>         0.0868
     48 H18        19.3252   37.2879   87.1720 H       1  <0>         0.0868
     49 H19        19.2000   35.9219   85.1502 H       1  <0>         0.0868
     50 H20        20.1863   36.3581   83.7162 H       1  <0>         0.0868
     51 H21        23.4540   35.8499   85.5451 H       1  <0>         0.0514
     52 H22        22.1776   35.6523   84.2801 H       1  <0>         0.0514
     53 H23        21.1413   35.9039   86.4438 H       1  <0>         0.0830
     54 H24        22.0824   37.4263   86.7505 H       1  <0>         0.0830
     55 H25        17.3000   37.3773   85.7070 H       1  <0>         0.2018
     56 H26        16.9135   38.7152   84.8397 H       1  <0>         0.2018
     57 H27        22.6520   37.5395   83.4191 H       1  <0>         0.1463
     58 H28        20.8209   38.3456   84.8386 H       1  <0>         0.2038
@<TRIPOS>BOND
     1     1     3   ar
     2     1     4   ar
     3     2     5   ar
     4     2     6   ar
     5     3     7   ar
     6     4     8   ar
     7     5     9   ar
     8     6    10   ar
     9     7    19   ar
    10     8    19   ar
    11     9    20   ar
    12    10    20   ar
    13    11    12   ar
    14    11    21   ar
    15    12    26   ar
    16    13    15    1
    17    13    27    1
    18    14    16    1
    19    14    27    1
    20    15    29    1
    21    16    29    1
    22    17    18    1
    23    17    28    1
    24    18    29    1
    25    19    23    1
    26    20    24    1
    27    21    22   ar
    28    21    28    1
    29    22    23    1
    30    22    25   ar
    31    23    24    2
    32    24    30    1
    33    25    26   ar
    34    25    30    1
    35     1    31    1
    36     2    32    1
    37     3    33    1
    38     4    34    1
    39     5    35    1
    40     6    36    1
    41     7    37    1
    42     8    38    1
    43     9    39    1
    44    10    40    1
    45    11    41    1
    46    12    42    1
    47    13    43    1
    48    13    44    1
    49    14    45    1
    50    14    46    1
    51    15    47    1
    52    15    48    1
    53    16    49    1
    54    16    50    1
    55    17    51    1
    56    17    52    1
    57    18    53    1
    58    18    54    1
    59    27    55    1
    60    27    56    1
    61    28    57    1
    62    29    58    1
@<TRIPOS>SUBSTRUCTURE
     1 <0>         1 TEMP              0 ****  ****    0 ROOT

