
##########                                Name:        547_201_2OF2
##########                    Molecular_Weight:             400.523
##########                DOCK_Rotatable_Bonds:                   6
##########                       Formal_Charge:              2.0009
##########                     HBond_Acceptors:                   5
##########                        HBond_Donors:                   4
##########                         Heavy_Atoms:                  30
##########                            HA_RMSDs:               6.109
##########                            HA_RMSDh:               5.379
##########                            HA_RMSDm:               3.952
##########                          Grid_Score:         -164.223907
##########                     Grid_vdw_energy:          -49.928223
##########                      Grid_es_energy:         -114.295692
##########           Internal_energy_repulsive:            9.812960

@<TRIPOS>MOLECULE
547_201_2OF2
 58 62 1 0 0
SMALL
USER_CHARGES


@<TRIPOS>ATOM
      1 C1         20.9391   41.2192   87.4050 C.ar    1  <0>        -0.0617
      2 C2         25.8272   46.1826   86.0792 C.ar    1  <0>        -0.0617
      3 C3         20.9326   41.2450   85.9606 C.ar    1  <0>        -0.0612
      4 C4         22.1770   41.0845   88.1396 C.ar    1  <0>        -0.0612
      5 C5         26.8321   45.6400   85.1908 C.ar    1  <0>        -0.0611
      6 C6         24.7996   45.3449   86.6185 C.ar    1  <0>        -0.0611
      7 C7         22.1679   41.1419   85.2427 C.ar    1  <0>        -0.0539
      8 C8         23.4103   40.9830   87.4183 C.ar    1  <0>        -0.0539
      9 C9         26.7997   44.2498   84.8318 C.ar    1  <0>        -0.0521
     10 C10        24.7760   43.9690   86.2611 C.ar    1  <0>        -0.0521
     11 C11        25.5470   37.4515   83.7933 C.ar    1  <0>        -0.0219
     12 C12        26.7795   37.8647   83.2247 C.ar    1  <0>         0.0322
     13 C13        18.4179   38.5215   86.3710 C.3     1  <0>         0.0077
     14 C14        18.7355   38.5510   83.9155 C.3     1  <0>         0.0077
     15 C15        19.5508   37.4846   86.4859 C.3     1  <0>         0.0094
     16 C16        19.8370   37.4784   84.0584 C.3     1  <0>         0.0094
     17 C17        22.8391   36.8085   84.7505 C.3     1  <0>         0.0492
     18 C18        21.5583   36.6154   85.5679 C.3     1  <0>        -0.0156
     19 C19        23.4007   41.0112   85.9696 C.ar    1  <0>        -0.0146
     20 C20        25.7707   43.4013   85.3660 C.ar    1  <0>         0.0062
     21 C21        24.7375   38.4082   84.5068 C.ar    1  <0>         0.0407
     22 C22        25.2211   39.7860   84.6351 C.ar    1  <0>         0.0556
     23 C23        24.6926   40.9201   85.2447 C.2     1  <0>         0.0262
     24 C24        25.7590   41.9591   84.9601 C.2     1  <0>         0.1005
     25 C25        26.4655   40.1062   84.0423 C.ar    1  <0>         0.1828
     26 N1         27.2060   39.1453   83.3679 N.ar    1  <0>        -0.2309
     27 N2         17.7600   38.3805   85.0384 N.4     1  <0>         0.2345
     28 N3         23.5329   38.0483   85.0743 N.pl3   1  <0>        -0.3381
     29 N4         20.5201   37.6581   85.3701 N.4     1  <0>         0.2438
     30 O1         26.8006   41.4071   84.2405 O.3     1  <0>        -0.2890
     31 H1         20.0065   41.3017   87.9433 H       1  <0>         0.0618
     32 H2         25.8528   47.2308   86.3380 H       1  <0>         0.0618
     33 H3         20.0001   41.3416   85.4243 H       1  <0>         0.0618
     34 H4         22.1718   41.0608   89.2193 H       1  <0>         0.0618
     35 H5         27.6073   46.2810   84.7974 H       1  <0>         0.0618
     36 H6         24.0543   45.7514   87.2861 H       1  <0>         0.0618
     37 H7         22.1727   41.1622   84.1629 H       1  <0>         0.0624
     38 H8         24.3439   40.8858   87.9524 H       1  <0>         0.0624
     39 H9         27.5451   43.8443   84.1637 H       1  <0>         0.0624
     40 H10        24.0023   43.3319   86.6633 H       1  <0>         0.0624
     41 H11        25.2176   36.4279   83.6926 H       1  <0>         0.0651
     42 H12        27.3816   37.1564   82.6750 H       1  <0>         0.0831
     43 H13        17.6787   38.3500   87.1674 H       1  <0>         0.0867
     44 H14        18.8337   39.5349   86.4718 H       1  <0>         0.0867
     45 H15        19.1840   39.5544   83.9604 H       1  <0>         0.0867
     46 H16        18.2195   38.4296   82.9517 H       1  <0>         0.0867
     47 H17        20.0728   37.6227   87.4443 H       1  <0>         0.0868
     48 H18        19.1221   36.4727   86.4395 H       1  <0>         0.0868
     49 H19        19.3859   36.4763   84.0106 H       1  <0>         0.0868
     50 H20        20.5674   37.5874   83.2431 H       1  <0>         0.0868
     51 H21        23.5155   35.9670   84.9614 H       1  <0>         0.0514
     52 H22        22.5703   36.8295   83.6841 H       1  <0>         0.0514
     53 H23        21.1199   35.6496   85.2766 H       1  <0>         0.0830
     54 H24        21.8381   36.6218   86.6317 H       1  <0>         0.0830
     55 H25        17.3553   37.4682   84.9757 H       1  <0>         0.2018
     56 H26        17.0504   39.0802   84.9555 H       1  <0>         0.2018
     57 H27        22.8968   38.7775   84.8218 H       1  <0>         0.1463
     58 H28        20.9206   38.5743   85.3677 H       1  <0>         0.2038
@<TRIPOS>BOND
     1     1     3   ar
     2     1     4   ar
     3     2     5   ar
     4     2     6   ar
     5     3     7   ar
     6     4     8   ar
     7     5     9   ar
     8     6    10   ar
     9     7    19   ar
    10     8    19   ar
    11     9    20   ar
    12    10    20   ar
    13    11    12   ar
    14    11    21   ar
    15    12    26   ar
    16    13    15    1
    17    13    27    1
    18    14    16    1
    19    14    27    1
    20    15    29    1
    21    16    29    1
    22    17    18    1
    23    17    28    1
    24    18    29    1
    25    19    23    1
    26    20    24    1
    27    21    22   ar
    28    21    28    1
    29    22    23    1
    30    22    25   ar
    31    23    24    2
    32    24    30    1
    33    25    26   ar
    34    25    30    1
    35     1    31    1
    36     2    32    1
    37     3    33    1
    38     4    34    1
    39     5    35    1
    40     6    36    1
    41     7    37    1
    42     8    38    1
    43     9    39    1
    44    10    40    1
    45    11    41    1
    46    12    42    1
    47    13    43    1
    48    13    44    1
    49    14    45    1
    50    14    46    1
    51    15    47    1
    52    15    48    1
    53    16    49    1
    54    16    50    1
    55    17    51    1
    56    17    52    1
    57    18    53    1
    58    18    54    1
    59    27    55    1
    60    27    56    1
    61    28    57    1
    62    29    58    1
@<TRIPOS>SUBSTRUCTURE
     1 <0>         1 TEMP              0 ****  ****    0 ROOT

