
##########                                Name:        547_201_2OF2
##########                    Molecular_Weight:             400.523
##########                DOCK_Rotatable_Bonds:                   6
##########                       Formal_Charge:              2.0009
##########                     HBond_Acceptors:                   5
##########                        HBond_Donors:                   4
##########                         Heavy_Atoms:                  30
##########                            HA_RMSDs:               5.270
##########                            HA_RMSDh:               4.749
##########                            HA_RMSDm:               3.522
##########                          Grid_Score:         -162.590240
##########                     Grid_vdw_energy:          -47.493797
##########                      Grid_es_energy:         -115.096443
##########           Internal_energy_repulsive:            7.966964

@<TRIPOS>MOLECULE
547_201_2OF2
 58 62 1 0 0
SMALL
USER_CHARGES


@<TRIPOS>ATOM
      1 C1         22.1841   41.9023   87.0352 C.ar    1  <0>        -0.0617
      2 C2         28.3249   45.2998   85.9114 C.ar    1  <0>        -0.0617
      3 C3         22.3514   42.2118   85.6341 C.ar    1  <0>        -0.0612
      4 C4         23.1876   41.1502   87.7544 C.ar    1  <0>        -0.0612
      5 C5         29.2904   44.3559   85.3917 C.ar    1  <0>        -0.0611
      6 C6         26.9496   44.9319   86.0588 C.ar    1  <0>        -0.0611
      7 C7         23.5290   41.7744   84.9457 C.ar    1  <0>        -0.0539
      8 C8         24.3643   40.7156   87.0631 C.ar    1  <0>        -0.0539
      9 C9         28.8717   43.0372   85.0065 C.ar    1  <0>        -0.0521
     10 C10        26.5433   43.6236   85.6784 C.ar    1  <0>        -0.0521
     11 C11        25.6528   37.0192   83.4964 C.ar    1  <0>        -0.0219
     12 C12        26.9678   37.0717   82.9663 C.ar    1  <0>         0.0322
     13 C13        18.8153   39.4938   85.5347 C.3     1  <0>         0.0077
     14 C14        18.3580   37.6732   83.9199 C.3     1  <0>         0.0077
     15 C15        20.0320   38.7037   86.0517 C.3     1  <0>         0.0094
     16 C16        19.5574   36.8848   84.4894 C.3     1  <0>         0.0094
     17 C17        22.9666   36.9967   84.6580 C.3     1  <0>         0.0492
     18 C18        21.7406   37.1311   85.5660 C.3     1  <0>        -0.0156
     19 C19        24.5303   41.0293   85.6582 C.ar    1  <0>        -0.0146
     20 C20        27.4929   42.6592   85.1483 C.ar    1  <0>         0.0062
     21 C21        25.1242   38.1619   84.1996 C.ar    1  <0>         0.0407
     22 C22        25.9714   39.3475   84.3580 C.ar    1  <0>         0.0556
     23 C23        25.7652   40.5818   84.9672 C.2     1  <0>         0.0262
     24 C24        27.0884   41.2802   84.7243 C.2     1  <0>         0.1005
     25 C25        27.2725   39.3075   83.8029 C.ar    1  <0>         0.1828
     26 N1         27.7327   38.1801   83.1368 N.ar    1  <0>        -0.2309
     27 N2         17.7986   38.5357   85.0083 N.4     1  <0>         0.2345
     28 N3         23.8509   38.1527   84.7300 N.pl3   1  <0>        -0.3381
     29 N4         20.5875   37.8493   84.9673 N.4     1  <0>         0.2438
     30 O1         27.9536   40.4607   84.0262 O.3     1  <0>        -0.2890
     31 H1         21.2972   42.2374   87.5525 H       1  <0>         0.0618
     32 H2         28.6453   46.2926   86.1911 H       1  <0>         0.0618
     33 H3         21.5917   42.7707   85.1078 H       1  <0>         0.0618
     34 H4         23.0517   40.9188   88.8006 H       1  <0>         0.0618
     35 H5         30.3269   44.6432   85.2934 H       1  <0>         0.0618
     36 H6         26.2321   45.6366   86.4526 H       1  <0>         0.0618
     37 H7         23.6634   42.0029   83.8987 H       1  <0>         0.0624
     38 H8         25.1251   40.1562   87.5871 H       1  <0>         0.0624
     39 H9         29.5897   42.3333   84.6122 H       1  <0>         0.0624
     40 H10        25.5067   43.3402   85.7856 H       1  <0>         0.0624
     41 H11        25.0522   36.1300   83.3741 H       1  <0>         0.0651
     42 H12        27.3626   36.2251   82.4242 H       1  <0>         0.0831
     43 H13        18.3792   40.0795   86.3573 H       1  <0>         0.0867
     44 H14        19.1319   40.1744   84.7306 H       1  <0>         0.0867
     45 H15        18.6895   38.3011   83.0798 H       1  <0>         0.0867
     46 H16        17.5868   36.9738   83.5648 H       1  <0>         0.0867
     47 H17        20.8055   39.4092   86.3894 H       1  <0>         0.0868
     48 H18        19.7197   38.0658   86.8917 H       1  <0>         0.0868
     49 H19        19.2224   36.2561   85.3275 H       1  <0>         0.0868
     50 H20        19.9861   36.2451   83.7038 H       1  <0>         0.0868
     51 H21        23.5331   36.1066   84.9693 H       1  <0>         0.0514
     52 H22        22.6195   36.8895   83.6198 H       1  <0>         0.0514
     53 H23        21.4037   36.1160   85.8228 H       1  <0>         0.0830
     54 H24        22.0500   37.6876   86.4630 H       1  <0>         0.0830
     55 H25        17.4934   37.9484   85.7578 H       1  <0>         0.2018
     56 H26        17.0279   39.0561   84.6407 H       1  <0>         0.2018
     57 H27        23.3638   38.8845   84.2532 H       1  <0>         0.1463
     58 H28        20.8682   38.3925   84.1761 H       1  <0>         0.2038
@<TRIPOS>BOND
     1     1     3   ar
     2     1     4   ar
     3     2     5   ar
     4     2     6   ar
     5     3     7   ar
     6     4     8   ar
     7     5     9   ar
     8     6    10   ar
     9     7    19   ar
    10     8    19   ar
    11     9    20   ar
    12    10    20   ar
    13    11    12   ar
    14    11    21   ar
    15    12    26   ar
    16    13    15    1
    17    13    27    1
    18    14    16    1
    19    14    27    1
    20    15    29    1
    21    16    29    1
    22    17    18    1
    23    17    28    1
    24    18    29    1
    25    19    23    1
    26    20    24    1
    27    21    22   ar
    28    21    28    1
    29    22    23    1
    30    22    25   ar
    31    23    24    2
    32    24    30    1
    33    25    26   ar
    34    25    30    1
    35     1    31    1
    36     2    32    1
    37     3    33    1
    38     4    34    1
    39     5    35    1
    40     6    36    1
    41     7    37    1
    42     8    38    1
    43     9    39    1
    44    10    40    1
    45    11    41    1
    46    12    42    1
    47    13    43    1
    48    13    44    1
    49    14    45    1
    50    14    46    1
    51    15    47    1
    52    15    48    1
    53    16    49    1
    54    16    50    1
    55    17    51    1
    56    17    52    1
    57    18    53    1
    58    18    54    1
    59    27    55    1
    60    27    56    1
    61    28    57    1
    62    29    58    1
@<TRIPOS>SUBSTRUCTURE
     1 <0>         1 TEMP              0 ****  ****    0 ROOT

