
##########                                Name:        547_201_2OF2
##########                    Molecular_Weight:             400.523
##########                DOCK_Rotatable_Bonds:                   6
##########                       Formal_Charge:              2.0009
##########                     HBond_Acceptors:                   5
##########                        HBond_Donors:                   4
##########                         Heavy_Atoms:                  30
##########                            HA_RMSDs:               0.810
##########                            HA_RMSDh:               0.810
##########                            HA_RMSDm:               0.745
##########                          Grid_Score:         -163.613068
##########                     Grid_vdw_energy:          -49.629742
##########                      Grid_es_energy:         -113.983330
##########           Internal_energy_repulsive:            9.282692

@<TRIPOS>MOLECULE
547_201_2OF2
 58 62 1 0 0
SMALL
USER_CHARGES


@<TRIPOS>ATOM
      1 C1         26.6489   41.5135   86.8523 C.ar    1  <0>        -0.0617
      2 C2         32.1220   38.7730   83.2430 C.ar    1  <0>        -0.0617
      3 C3         26.6842   41.7507   85.4277 C.ar    1  <0>        -0.0612
      4 C4         26.6471   40.1680   87.3811 C.ar    1  <0>        -0.0612
      5 C5         31.6442   37.7196   82.3739 C.ar    1  <0>        -0.0611
      6 C6         31.2371   39.4169   84.1655 C.ar    1  <0>        -0.0611
      7 C7         26.7240   40.6405   84.5235 C.ar    1  <0>        -0.0539
      8 C8         26.6882   39.0604   86.4739 C.ar    1  <0>        -0.0539
      9 C9         30.2665   37.3167   82.4222 C.ar    1  <0>        -0.0521
     10 C10        29.8754   39.0104   84.2098 C.ar    1  <0>        -0.0521
     11 C11        23.4384   36.3141   83.5344 C.ar    1  <0>        -0.0219
     12 C12        23.9838   35.3610   82.6361 C.ar    1  <0>         0.0322
     13 C13        23.2520   43.1673   86.2980 C.3     1  <0>         0.0077
     14 C14        22.8507   42.5799   83.9262 C.3     1  <0>         0.0077
     15 C15        22.5756   41.8492   86.7189 C.3     1  <0>         0.0094
     16 C16        22.1385   41.2873   84.3806 C.3     1  <0>         0.0094
     17 C17        22.4143   38.3089   85.4151 C.3     1  <0>         0.0492
     18 C18        22.0613   39.6033   86.1538 C.3     1  <0>        -0.0156
     19 C19        26.7256   39.3015   85.0456 C.ar    1  <0>        -0.0146
     20 C20        29.3698   37.9587   83.3430 C.ar    1  <0>         0.0062
     21 C21        24.2960   37.3212   84.1088 C.ar    1  <0>         0.0407
     22 C22        25.7184   37.3228   83.7548 C.ar    1  <0>         0.0556
     23 C23        26.7837   38.1381   84.1259 C.2     1  <0>         0.0262
     24 C24        27.9364   37.5229   83.3575 C.2     1  <0>         0.1005
     25 C25        26.1758   36.3295   82.8567 C.ar    1  <0>         0.1828
     26 N1         25.3071   35.3815   82.3342 N.ar    1  <0>        -0.2309
     27 N2         22.6796   43.6152   84.9940 N.4     1  <0>         0.2345
     28 N3         23.8063   38.2665   84.9859 N.pl3   1  <0>        -0.3381
     29 N4         22.7495   40.8213   85.6570 N.4     1  <0>         0.2438
     30 O1         27.5085   36.4366   82.6196 O.3     1  <0>        -0.2890
     31 H1         26.6235   42.3528   87.5315 H       1  <0>         0.0618
     32 H2         33.1574   39.0766   83.1953 H       1  <0>         0.0618
     33 H3         26.6806   42.7611   85.0460 H       1  <0>         0.0618
     34 H4         26.6152   40.0000   88.4475 H       1  <0>         0.0618
     35 H5         32.3242   37.2358   81.6883 H       1  <0>         0.0618
     36 H6         31.5979   40.1988   84.8173 H       1  <0>         0.0618
     37 H7         26.7525   40.8084   83.4570 H       1  <0>         0.0624
     38 H8         26.6914   38.0492   86.8532 H       1  <0>         0.0624
     39 H9         29.9065   36.5351   81.7696 H       1  <0>         0.0624
     40 H10        29.2021   39.4933   84.9024 H       1  <0>         0.0624
     41 H11        22.3885   36.2855   83.7863 H       1  <0>         0.0651
     42 H12        23.3428   34.6150   82.1901 H       1  <0>         0.0831
     43 H13        23.0710   43.9358   87.0638 H       1  <0>         0.0867
     44 H14        24.3350   43.0081   86.1902 H       1  <0>         0.0867
     45 H15        23.9209   42.3803   83.7685 H       1  <0>         0.0867
     46 H16        22.4083   42.9382   82.9850 H       1  <0>         0.0867
     47 H17        23.0341   41.4882   87.6514 H       1  <0>         0.0868
     48 H18        21.5019   42.0276   86.8784 H       1  <0>         0.0868
     49 H19        21.0683   41.4894   84.5351 H       1  <0>         0.0868
     50 H20        22.2543   40.5109   83.6101 H       1  <0>         0.0868
     51 H21        22.2344   37.4620   86.0936 H       1  <0>         0.0514
     52 H22        21.7739   38.2321   84.5241 H       1  <0>         0.0514
     53 H23        20.9787   39.7644   86.0442 H       1  <0>         0.0830
     54 H24        22.3400   39.4707   87.2096 H       1  <0>         0.0830
     55 H25        21.7028   43.7912   85.1163 H       1  <0>         0.2018
     56 H26        23.1484   44.4510   84.7083 H       1  <0>         0.2018
     57 H27        23.9692   39.1464   84.5396 H       1  <0>         0.1463
     58 H28        23.7155   40.6428   85.4702 H       1  <0>         0.2038
@<TRIPOS>BOND
     1     1     3   ar
     2     1     4   ar
     3     2     5   ar
     4     2     6   ar
     5     3     7   ar
     6     4     8   ar
     7     5     9   ar
     8     6    10   ar
     9     7    19   ar
    10     8    19   ar
    11     9    20   ar
    12    10    20   ar
    13    11    12   ar
    14    11    21   ar
    15    12    26   ar
    16    13    15    1
    17    13    27    1
    18    14    16    1
    19    14    27    1
    20    15    29    1
    21    16    29    1
    22    17    18    1
    23    17    28    1
    24    18    29    1
    25    19    23    1
    26    20    24    1
    27    21    22   ar
    28    21    28    1
    29    22    23    1
    30    22    25   ar
    31    23    24    2
    32    24    30    1
    33    25    26   ar
    34    25    30    1
    35     1    31    1
    36     2    32    1
    37     3    33    1
    38     4    34    1
    39     5    35    1
    40     6    36    1
    41     7    37    1
    42     8    38    1
    43     9    39    1
    44    10    40    1
    45    11    41    1
    46    12    42    1
    47    13    43    1
    48    13    44    1
    49    14    45    1
    50    14    46    1
    51    15    47    1
    52    15    48    1
    53    16    49    1
    54    16    50    1
    55    17    51    1
    56    17    52    1
    57    18    53    1
    58    18    54    1
    59    27    55    1
    60    27    56    1
    61    28    57    1
    62    29    58    1
@<TRIPOS>SUBSTRUCTURE
     1 <0>         1 TEMP              0 ****  ****    0 ROOT

