
##########                                Name:        547_201_2OF2
##########                    Molecular_Weight:             400.523
##########                DOCK_Rotatable_Bonds:                   6
##########                       Formal_Charge:              2.0009
##########                     HBond_Acceptors:                   5
##########                        HBond_Donors:                   4
##########                         Heavy_Atoms:                  30
##########                            HA_RMSDs:               5.270
##########                            HA_RMSDh:               4.695
##########                            HA_RMSDm:               3.735
##########                          Grid_Score:         -166.857208
##########                     Grid_vdw_energy:          -51.627815
##########                      Grid_es_energy:         -115.229393
##########           Internal_energy_repulsive:            8.090603

@<TRIPOS>MOLECULE
547_201_2OF2
 58 62 1 0 0
SMALL
USER_CHARGES


@<TRIPOS>ATOM
      1 C1         21.5865   41.5227   86.4018 C.ar    1  <0>        -0.0617
      2 C2         27.7250   45.0273   85.6983 C.ar    1  <0>        -0.0617
      3 C3         21.7749   41.5626   84.9701 C.ar    1  <0>        -0.0612
      4 C4         22.6342   41.0438   87.2754 C.ar    1  <0>        -0.0612
      5 C5         28.7257   43.9823   85.7075 C.ar    1  <0>        -0.0611
      6 C6         26.3731   44.7412   85.3251 C.ar    1  <0>        -0.0611
      7 C7         23.0173   41.1283   84.4047 C.ar    1  <0>        -0.0539
      8 C8         23.8755   40.6116   86.7066 C.ar    1  <0>        -0.0539
      9 C9         28.3707   42.6431   85.3290 C.ar    1  <0>        -0.0521
     10 C10        26.0286   43.4124   84.9549 C.ar    1  <0>        -0.0521
     11 C11        25.4655   36.5995   83.3729 C.ar    1  <0>        -0.0219
     12 C12        26.8196   36.6687   82.9552 C.ar    1  <0>         0.0322
     13 C13        18.6192   38.5617   86.4271 C.3     1  <0>         0.0077
     14 C14        18.6188   38.5200   83.9514 C.3     1  <0>         0.0077
     15 C15        19.7168   37.4813   86.4261 C.3     1  <0>         0.0094
     16 C16        19.6874   37.4058   83.9831 C.3     1  <0>         0.0094
     17 C17        22.6692   36.5684   84.2362 C.3     1  <0>         0.0492
     18 C18        21.5543   36.5074   85.2845 C.3     1  <0>        -0.0156
     19 C19        24.0623   40.6547   85.2703 C.ar    1  <0>        -0.0146
     20 C20        27.0169   42.3464   84.9505 C.ar    1  <0>         0.0062
     21 C21        24.8501   37.7524   83.9826 C.ar    1  <0>         0.0407
     22 C22        25.6512   38.9663   84.1655 C.ar    1  <0>         0.0556
     23 C23        25.3629   40.2163   84.7054 C.2     1  <0>         0.0262
     24 C24        26.6845   40.9418   84.5486 C.2     1  <0>         0.1005
     25 C25        26.9958   38.9419   83.7253 C.ar    1  <0>         0.1828
     26 N1         27.5394   37.8037   83.1461 N.ar    1  <0>        -0.2309
     27 N2         17.7902   38.4170   85.1941 N.4     1  <0>         0.2345
     28 N3         23.5365   37.7276   84.4025 N.pl3   1  <0>        -0.3381
     29 N4         20.5402   37.5876   85.1911 N.4     1  <0>         0.2438
     30 O1         27.6266   40.1212   83.9599 O.3     1  <0>        -0.2890
     31 H1         20.6503   41.8550   86.8253 H       1  <0>         0.0618
     32 H2         28.0010   46.0339   85.9759 H       1  <0>         0.0618
     33 H3         20.9823   41.9186   84.3286 H       1  <0>         0.0618
     34 H4         22.4826   41.0125   88.3443 H       1  <0>         0.0618
     35 H5         29.7404   44.2096   85.9993 H       1  <0>         0.0618
     36 H6         25.6269   45.5219   85.3249 H       1  <0>         0.0618
     37 H7         23.1678   41.1565   83.3355 H       1  <0>         0.0624
     38 H8         24.6695   40.2548   87.3459 H       1  <0>         0.0624
     39 H9         29.1177   41.8631   85.3290 H       1  <0>         0.0624
     40 H10        25.0107   43.1902   84.6707 H       1  <0>         0.0624
     41 H11        24.8996   35.6898   83.2353 H       1  <0>         0.0651
     42 H12        27.2803   35.8138   82.4827 H       1  <0>         0.0831
     43 H13        17.9828   38.4401   87.3160 H       1  <0>         0.0867
     44 H14        19.0832   39.5589   86.4447 H       1  <0>         0.0867
     45 H15        19.1076   39.5045   83.9097 H       1  <0>         0.0867
     46 H16        17.9787   38.3976   83.0652 H       1  <0>         0.0867
     47 H17        20.3628   37.6199   87.3056 H       1  <0>         0.0868
     48 H18        19.2470   36.4873   86.4640 H       1  <0>         0.0868
     49 H19        19.1956   36.4226   84.0223 H       1  <0>         0.0868
     50 H20        20.3103   37.4649   83.0784 H       1  <0>         0.0868
     51 H21        23.2826   35.6600   84.3286 H       1  <0>         0.0514
     52 H22        22.2061   36.6215   83.2398 H       1  <0>         0.0514
     53 H23        21.0313   35.5479   85.1587 H       1  <0>         0.0830
     54 H24        22.0254   36.5778   86.2760 H       1  <0>         0.0830
     55 H25        17.3460   37.5212   85.2099 H       1  <0>         0.2018
     56 H26        17.1033   39.1436   85.1825 H       1  <0>         0.2018
     57 H27        23.0869   38.4649   83.8982 H       1  <0>         0.1463
     58 H28        20.9720   38.4860   85.1112 H       1  <0>         0.2038
@<TRIPOS>BOND
     1     1     3   ar
     2     1     4   ar
     3     2     5   ar
     4     2     6   ar
     5     3     7   ar
     6     4     8   ar
     7     5     9   ar
     8     6    10   ar
     9     7    19   ar
    10     8    19   ar
    11     9    20   ar
    12    10    20   ar
    13    11    12   ar
    14    11    21   ar
    15    12    26   ar
    16    13    15    1
    17    13    27    1
    18    14    16    1
    19    14    27    1
    20    15    29    1
    21    16    29    1
    22    17    18    1
    23    17    28    1
    24    18    29    1
    25    19    23    1
    26    20    24    1
    27    21    22   ar
    28    21    28    1
    29    22    23    1
    30    22    25   ar
    31    23    24    2
    32    24    30    1
    33    25    26   ar
    34    25    30    1
    35     1    31    1
    36     2    32    1
    37     3    33    1
    38     4    34    1
    39     5    35    1
    40     6    36    1
    41     7    37    1
    42     8    38    1
    43     9    39    1
    44    10    40    1
    45    11    41    1
    46    12    42    1
    47    13    43    1
    48    13    44    1
    49    14    45    1
    50    14    46    1
    51    15    47    1
    52    15    48    1
    53    16    49    1
    54    16    50    1
    55    17    51    1
    56    17    52    1
    57    18    53    1
    58    18    54    1
    59    27    55    1
    60    27    56    1
    61    28    57    1
    62    29    58    1
@<TRIPOS>SUBSTRUCTURE
     1 <0>         1 TEMP              0 ****  ****    0 ROOT

