
##########                                Name:        547_201_2OF2
##########                    Molecular_Weight:             400.523
##########                DOCK_Rotatable_Bonds:                   6
##########                       Formal_Charge:              2.0009
##########                     HBond_Acceptors:                   5
##########                        HBond_Donors:                   4
##########                         Heavy_Atoms:                  30
##########                            HA_RMSDs:               1.016
##########                            HA_RMSDh:               1.016
##########                            HA_RMSDm:               0.908
##########                          Grid_Score:         -162.885010
##########                     Grid_vdw_energy:          -48.232971
##########                      Grid_es_energy:         -114.652039
##########           Internal_energy_repulsive:            9.217724

@<TRIPOS>MOLECULE
547_201_2OF2
 58 62 1 0 0
SMALL
USER_CHARGES


@<TRIPOS>ATOM
      1 C1         26.4987   41.7375   86.7695 C.ar    1  <0>        -0.0617
      2 C2         32.2084   39.1005   83.4675 C.ar    1  <0>        -0.0617
      3 C3         26.5861   41.9511   85.3435 C.ar    1  <0>        -0.0612
      4 C4         26.5179   40.4020   87.3228 C.ar    1  <0>        -0.0612
      5 C5         31.7852   38.0735   82.5403 C.ar    1  <0>        -0.0611
      6 C6         31.2807   39.6772   84.3923 C.ar    1  <0>        -0.0611
      7 C7         26.6994   40.8272   84.4625 C.ar    1  <0>        -0.0539
      8 C8         26.6326   39.2808   86.4389 C.ar    1  <0>        -0.0539
      9 C9         30.4194   37.6296   82.5329 C.ar    1  <0>        -0.0521
     10 C10        29.9311   39.2303   84.3812 C.ar    1  <0>        -0.0521
     11 C11        23.5948   36.3917   83.4018 C.ar    1  <0>        -0.0219
     12 C12        24.2085   35.4397   82.5472 C.ar    1  <0>         0.0322
     13 C13        23.0837   43.1407   86.3237 C.3     1  <0>         0.0077
     14 C14        22.7051   42.5910   83.9393 C.3     1  <0>         0.0077
     15 C15        22.4606   41.7876   86.7148 C.3     1  <0>         0.0094
     16 C16        22.0453   41.2612   84.3643 C.3     1  <0>         0.0094
     17 C17        22.4926   38.2643   85.3785 C.3     1  <0>         0.0492
     18 C18        22.0361   39.5362   86.0993 C.3     1  <0>        -0.0156
     19 C19        26.7221   39.4982   85.0091 C.ar    1  <0>        -0.0146
     20 C20        29.4800   38.2042   83.4558 C.ar    1  <0>         0.0062
     21 C21        24.3959   37.4328   83.9969 C.ar    1  <0>         0.0407
     22 C22        25.8327   37.4696   83.7093 C.ar    1  <0>         0.0556
     23 C23        26.8560   38.3216   84.1144 C.2     1  <0>         0.0262
     24 C24        28.0603   37.7273   83.4117 C.2     1  <0>         0.1005
     25 C25        26.3595   36.4750   82.8516 C.ar    1  <0>         0.1828
     26 N1         25.5433   35.4935   82.3067 N.ar    1  <0>        -0.2309
     27 N2         22.4933   43.5945   85.0299 N.4     1  <0>         0.2345
     28 N3         23.8391   38.3781   84.8329 N.pl3   1  <0>        -0.3381
     29 N4         22.6749   40.7915   85.6302 N.4     1  <0>         0.2438
     30 O1         27.6984   36.6167   82.6747 O.3     1  <0>        -0.2890
     31 H1         26.4179   42.5871   87.4313 H       1  <0>         0.0618
     32 H2         33.2351   39.4355   83.4616 H       1  <0>         0.0618
     33 H3         26.5661   42.9540   84.9432 H       1  <0>         0.0618
     34 H4         26.4467   40.2515   88.3900 H       1  <0>         0.0618
     35 H5         32.4971   37.6403   81.8533 H       1  <0>         0.0618
     36 H6         31.6007   40.4395   85.0873 H       1  <0>         0.0618
     37 H7         26.7672   40.9775   83.3951 H       1  <0>         0.0624
     38 H8         26.6523   38.2769   86.8368 H       1  <0>         0.0624
     39 H9         30.1001   36.8677   81.8372 H       1  <0>         0.0624
     40 H10        29.2257   39.6626   85.0754 H       1  <0>         0.0624
     41 H11        22.5355   36.3369   83.6052 H       1  <0>         0.0651
     42 H12        23.6103   34.6681   82.0856 H       1  <0>         0.0831
     43 H13        22.8725   43.8841   87.1065 H       1  <0>         0.0867
     44 H14        24.1722   43.0273   86.2129 H       1  <0>         0.0867
     45 H15        23.7824   42.4378   83.7776 H       1  <0>         0.0867
     46 H16        22.2484   42.9523   83.0061 H       1  <0>         0.0867
     47 H17        22.9335   41.4244   87.6392 H       1  <0>         0.0868
     48 H18        21.3807   41.9194   86.8778 H       1  <0>         0.0868
     49 H19        20.9679   41.4170   84.5227 H       1  <0>         0.0868
     50 H20        22.1915   40.5074   83.5767 H       1  <0>         0.0868
     51 H21        22.4792   37.4332   86.0990 H       1  <0>         0.0514
     52 H22        21.7976   38.0670   84.5490 H       1  <0>         0.0514
     53 H23        20.9517   39.6360   85.9436 H       1  <0>         0.0830
     54 H24        22.2766   39.4188   87.1663 H       1  <0>         0.0830
     55 H25        21.5104   43.7286   85.1556 H       1  <0>         0.2018
     56 H26        22.9284   44.4544   84.7631 H       1  <0>         0.2018
     57 H27        23.8356   39.2262   84.3030 H       1  <0>         0.1463
     58 H28        23.6472   40.6558   85.4400 H       1  <0>         0.2038
@<TRIPOS>BOND
     1     1     3   ar
     2     1     4   ar
     3     2     5   ar
     4     2     6   ar
     5     3     7   ar
     6     4     8   ar
     7     5     9   ar
     8     6    10   ar
     9     7    19   ar
    10     8    19   ar
    11     9    20   ar
    12    10    20   ar
    13    11    12   ar
    14    11    21   ar
    15    12    26   ar
    16    13    15    1
    17    13    27    1
    18    14    16    1
    19    14    27    1
    20    15    29    1
    21    16    29    1
    22    17    18    1
    23    17    28    1
    24    18    29    1
    25    19    23    1
    26    20    24    1
    27    21    22   ar
    28    21    28    1
    29    22    23    1
    30    22    25   ar
    31    23    24    2
    32    24    30    1
    33    25    26   ar
    34    25    30    1
    35     1    31    1
    36     2    32    1
    37     3    33    1
    38     4    34    1
    39     5    35    1
    40     6    36    1
    41     7    37    1
    42     8    38    1
    43     9    39    1
    44    10    40    1
    45    11    41    1
    46    12    42    1
    47    13    43    1
    48    13    44    1
    49    14    45    1
    50    14    46    1
    51    15    47    1
    52    15    48    1
    53    16    49    1
    54    16    50    1
    55    17    51    1
    56    17    52    1
    57    18    53    1
    58    18    54    1
    59    27    55    1
    60    27    56    1
    61    28    57    1
    62    29    58    1
@<TRIPOS>SUBSTRUCTURE
     1 <0>         1 TEMP              0 ****  ****    0 ROOT

