
##########                                Name:        547_201_2OF2
##########                    Molecular_Weight:             400.523
##########                DOCK_Rotatable_Bonds:                   6
##########                       Formal_Charge:              2.0009
##########                     HBond_Acceptors:                   5
##########                        HBond_Donors:                   4
##########                         Heavy_Atoms:                  30
##########                            HA_RMSDs:               0.720
##########                            HA_RMSDh:               0.720
##########                            HA_RMSDm:               0.675
##########                          Grid_Score:         -163.465637
##########                     Grid_vdw_energy:          -48.136383
##########                      Grid_es_energy:         -115.329247
##########           Internal_energy_repulsive:            8.736703

@<TRIPOS>MOLECULE
547_201_2OF2
 58 62 1 0 0
SMALL
USER_CHARGES


@<TRIPOS>ATOM
      1 C1         26.5794   41.5910   86.6008 C.ar    1  <0>        -0.0617
      2 C2         32.0662   38.5157   83.2957 C.ar    1  <0>        -0.0617
      3 C3         26.7132   41.7507   85.1713 C.ar    1  <0>        -0.0612
      4 C4         26.4715   40.2772   87.1943 C.ar    1  <0>        -0.0612
      5 C5         31.5673   37.4834   82.4131 C.ar    1  <0>        -0.0611
      6 C6         31.1906   39.1779   84.2140 C.ar    1  <0>        -0.0611
      7 C7         26.7456   40.5939   84.3272 C.ar    1  <0>        -0.0539
      8 C8         26.5056   39.1227   86.3472 C.ar    1  <0>        -0.0539
      9 C9         30.1781   37.1204   82.4438 C.ar    1  <0>        -0.0521
     10 C10        29.8173   38.8109   84.2408 C.ar    1  <0>        -0.0521
     11 C11        23.3102   36.3162   83.4668 C.ar    1  <0>        -0.0219
     12 C12        23.8515   35.3019   82.6355 C.ar    1  <0>         0.0322
     13 C13        23.0467   43.1518   86.8004 C.3     1  <0>         0.0077
     14 C14        22.5490   42.8975   84.3882 C.3     1  <0>         0.0077
     15 C15        22.4593   41.7501   87.0498 C.3     1  <0>         0.0094
     16 C16        21.9263   41.5140   84.6760 C.3     1  <0>         0.0094
     17 C17        22.2853   38.4701   85.1627 C.3     1  <0>         0.0492
     18 C18        22.0266   39.5861   86.1790 C.3     1  <0>        -0.0156
     19 C19        26.6419   39.2859   84.9139 C.ar    1  <0>        -0.0146
     20 C20        29.2906   37.7811   83.3603 C.ar    1  <0>         0.0062
     21 C21        24.1812   37.3278   84.0123 C.ar    1  <0>         0.0407
     22 C22        25.6122   37.2707   83.6997 C.ar    1  <0>         0.0556
     23 C23        26.6905   38.0743   84.0581 C.2     1  <0>         0.0262
     24 C24        27.8451   37.3872   83.3563 C.2     1  <0>         0.1005
     25 C25        26.0643   36.2188   82.8681 C.ar    1  <0>         0.1828
     26 N1         25.1825   35.2692   82.3710 N.ar    1  <0>        -0.2309
     27 N2         22.3843   43.7534   85.6054 N.4     1  <0>         0.2345
     28 N3         23.6959   38.3316   84.8244 N.pl3   1  <0>        -0.3381
     29 N4         22.6266   40.9009   85.8393 N.4     1  <0>         0.2438
     30 O1         27.4055   36.2757   82.6641 O.3     1  <0>        -0.2890
     31 H1         26.5598   42.4651   87.2349 H       1  <0>         0.0618
     32 H2         33.1104   38.7894   83.2612 H       1  <0>         0.0618
     33 H3         26.7884   42.7384   84.7408 H       1  <0>         0.0618
     34 H4         26.3665   40.1674   88.2635 H       1  <0>         0.0618
     35 H5         32.2402   36.9854   81.7308 H       1  <0>         0.0618
     36 H6         31.5669   39.9439   84.8758 H       1  <0>         0.0618
     37 H7         26.8473   40.7036   83.2576 H       1  <0>         0.0624
     38 H8         26.4301   38.1340   86.7754 H       1  <0>         0.0624
     39 H9         29.8025   36.3547   81.7812 H       1  <0>         0.0624
     40 H10        29.1509   39.3079   84.9302 H       1  <0>         0.0624
     41 H11        22.2534   36.3305   83.6895 H       1  <0>         0.0651
     42 H12        23.2010   34.5516   82.2107 H       1  <0>         0.0831
     43 H13        22.8692   43.7880   87.6800 H       1  <0>         0.0867
     44 H14        24.1289   43.0716   86.6210 H       1  <0>         0.0867
     45 H15        23.6177   42.7840   84.1539 H       1  <0>         0.0867
     46 H16        22.0400   43.3647   83.5322 H       1  <0>         0.0867
     47 H17        22.9840   41.2825   87.8960 H       1  <0>         0.0868
     48 H18        21.3881   41.8422   87.2827 H       1  <0>         0.0868
     49 H19        20.8573   41.6305   84.9074 H       1  <0>         0.0868
     50 H20        22.0389   40.8670   83.7936 H       1  <0>         0.0868
     51 H21        21.9370   37.5201   85.5942 H       1  <0>         0.0514
     52 H22        21.7290   38.7027   84.2427 H       1  <0>         0.0514
     53 H23        20.9378   39.7256   86.2504 H       1  <0>         0.0830
     54 H24        22.4514   39.2650   87.1415 H       1  <0>         0.0830
     55 H25        21.4079   43.8540   85.7969 H       1  <0>         0.2018
     56 H26        22.7956   44.6472   85.4269 H       1  <0>         0.2018
     57 H27        23.9383   39.1835   84.3602 H       1  <0>         0.1463
     58 H28        23.5889   40.8065   85.5843 H       1  <0>         0.2038
@<TRIPOS>BOND
     1     1     3   ar
     2     1     4   ar
     3     2     5   ar
     4     2     6   ar
     5     3     7   ar
     6     4     8   ar
     7     5     9   ar
     8     6    10   ar
     9     7    19   ar
    10     8    19   ar
    11     9    20   ar
    12    10    20   ar
    13    11    12   ar
    14    11    21   ar
    15    12    26   ar
    16    13    15    1
    17    13    27    1
    18    14    16    1
    19    14    27    1
    20    15    29    1
    21    16    29    1
    22    17    18    1
    23    17    28    1
    24    18    29    1
    25    19    23    1
    26    20    24    1
    27    21    22   ar
    28    21    28    1
    29    22    23    1
    30    22    25   ar
    31    23    24    2
    32    24    30    1
    33    25    26   ar
    34    25    30    1
    35     1    31    1
    36     2    32    1
    37     3    33    1
    38     4    34    1
    39     5    35    1
    40     6    36    1
    41     7    37    1
    42     8    38    1
    43     9    39    1
    44    10    40    1
    45    11    41    1
    46    12    42    1
    47    13    43    1
    48    13    44    1
    49    14    45    1
    50    14    46    1
    51    15    47    1
    52    15    48    1
    53    16    49    1
    54    16    50    1
    55    17    51    1
    56    17    52    1
    57    18    53    1
    58    18    54    1
    59    27    55    1
    60    27    56    1
    61    28    57    1
    62    29    58    1
@<TRIPOS>SUBSTRUCTURE
     1 <0>         1 TEMP              0 ****  ****    0 ROOT

