
##########                                Name:        547_201_2OF2
##########                    Molecular_Weight:             400.523
##########                DOCK_Rotatable_Bonds:                   6
##########                       Formal_Charge:              2.0009
##########                     HBond_Acceptors:                   5
##########                        HBond_Donors:                   4
##########                         Heavy_Atoms:                  30
##########                            HA_RMSDs:               1.370
##########                            HA_RMSDh:               1.370
##########                            HA_RMSDm:               1.198
##########                          Grid_Score:         -164.850616
##########                     Grid_vdw_energy:          -48.917545
##########                      Grid_es_energy:         -115.933067
##########           Internal_energy_repulsive:           11.467825

@<TRIPOS>MOLECULE
547_201_2OF2
 58 62 1 0 0
SMALL
USER_CHARGES


@<TRIPOS>ATOM
      1 C1         26.1744   41.7726   87.0118 C.ar    1  <0>        -0.0617
      2 C2         32.0503   39.8654   83.4843 C.ar    1  <0>        -0.0617
      3 C3         26.3504   42.0821   85.6118 C.ar    1  <0>        -0.0612
      4 C4         26.1958   40.4043   87.4781 C.ar    1  <0>        -0.0612
      5 C5         31.7715   38.6961   82.6791 C.ar    1  <0>        -0.0611
      6 C6         31.0251   40.4626   84.2850 C.ar    1  <0>        -0.0611
      7 C7         26.5549   41.0222   84.6701 C.ar    1  <0>        -0.0539
      8 C8         26.4018   39.3472   86.5339 C.ar    1  <0>        -0.0539
      9 C9         30.4524   38.1282   82.6679 C.ar    1  <0>        -0.0521
     10 C10        29.7226   39.8928   84.2712 C.ar    1  <0>        -0.0521
     11 C11        23.7332   36.3498   83.4140 C.ar    1  <0>        -0.0219
     12 C12        24.4173   35.5066   82.5008 C.ar    1  <0>         0.0322
     13 C13        22.8388   42.9673   86.2284 C.3     1  <0>         0.0077
     14 C14        22.2927   42.4638   83.8663 C.3     1  <0>         0.0077
     15 C15        22.2677   41.5953   86.6329 C.3     1  <0>         0.0094
     16 C16        21.6871   41.1137   84.3079 C.3     1  <0>         0.0094
     17 C17        22.4410   38.0842   85.3881 C.3     1  <0>         0.0492
     18 C18        21.8339   39.3509   85.9983 C.3     1  <0>        -0.0156
     19 C19        26.5800   39.6609   85.1304 C.ar    1  <0>        -0.0146
     20 C20        29.4159   38.7219   83.4663 C.ar    1  <0>         0.0062
     21 C21        24.4426   37.4325   84.0497 C.ar    1  <0>         0.0407
     22 C22        25.8627   37.6237   83.7408 C.ar    1  <0>         0.0556
     23 C23        26.8075   38.5497   84.1732 C.2     1  <0>         0.0262
     24 C24        28.0482   38.1119   83.4206 C.2     1  <0>         0.1005
     25 C25        26.4645   36.7298   82.8236 C.ar    1  <0>         0.1828
     26 N1         25.7353   35.7023   82.2415 N.ar    1  <0>        -0.2309
     27 N2         22.1468   43.4392   84.9927 N.4     1  <0>         0.2345
     28 N3         23.8153   38.2756   84.9432 N.pl3   1  <0>        -0.3381
     29 N4         22.4163   40.6272   85.5126 N.4     1  <0>         0.2438
     30 O1         27.7793   37.0100   82.6324 O.3     1  <0>        -0.2890
     31 H1         26.0249   42.5743   87.7198 H       1  <0>         0.0618
     32 H2         33.0424   40.2922   83.4812 H       1  <0>         0.0618
     33 H3         26.3278   43.1085   85.2764 H       1  <0>         0.0618
     34 H4         26.0581   40.1819   88.5260 H       1  <0>         0.0618
     35 H5         32.5561   38.2499   82.0859 H       1  <0>         0.0618
     36 H6         31.2375   41.3319   84.8897 H       1  <0>         0.0618
     37 H7         26.6893   41.2443   83.6218 H       1  <0>         0.0624
     38 H8         26.4243   38.3201   86.8667 H       1  <0>         0.0624
     39 H9         30.2407   37.2593   82.0625 H       1  <0>         0.0624
     40 H10        28.9441   40.3396   84.8718 H       1  <0>         0.0624
     41 H11        22.6887   36.1819   83.6316 H       1  <0>         0.0651
     42 H12        23.8866   34.7047   82.0092 H       1  <0>         0.0831
     43 H13        22.6748   43.6894   87.0418 H       1  <0>         0.0867
     44 H14        23.9176   42.8752   86.0348 H       1  <0>         0.0867
     45 H15        23.3571   42.3329   83.6219 H       1  <0>         0.0867
     46 H16        21.7623   42.8377   82.9782 H       1  <0>         0.0867
     47 H17        22.8137   41.2200   87.5111 H       1  <0>         0.0868
     48 H18        21.2010   41.7047   86.8783 H       1  <0>         0.0868
     49 H19        20.6222   41.2473   84.5492 H       1  <0>         0.0868
     50 H20        21.7862   40.3801   83.4943 H       1  <0>         0.0868
     51 H21        22.4303   37.2919   86.1512 H       1  <0>         0.0514
     52 H22        21.8327   37.7914   84.5196 H       1  <0>         0.0514
     53 H23        20.7620   39.3588   85.7511 H       1  <0>         0.0830
     54 H24        21.9920   39.3054   87.0858 H       1  <0>         0.0830
     55 H25        21.1739   43.5534   85.1939 H       1  <0>         0.2018
     56 H26        22.5473   44.3122   84.7146 H       1  <0>         0.2018
     57 H27        23.8256   39.1747   84.5056 H       1  <0>         0.1463
     58 H28        23.3738   40.5126   85.2478 H       1  <0>         0.2038
@<TRIPOS>BOND
     1     1     3   ar
     2     1     4   ar
     3     2     5   ar
     4     2     6   ar
     5     3     7   ar
     6     4     8   ar
     7     5     9   ar
     8     6    10   ar
     9     7    19   ar
    10     8    19   ar
    11     9    20   ar
    12    10    20   ar
    13    11    12   ar
    14    11    21   ar
    15    12    26   ar
    16    13    15    1
    17    13    27    1
    18    14    16    1
    19    14    27    1
    20    15    29    1
    21    16    29    1
    22    17    18    1
    23    17    28    1
    24    18    29    1
    25    19    23    1
    26    20    24    1
    27    21    22   ar
    28    21    28    1
    29    22    23    1
    30    22    25   ar
    31    23    24    2
    32    24    30    1
    33    25    26   ar
    34    25    30    1
    35     1    31    1
    36     2    32    1
    37     3    33    1
    38     4    34    1
    39     5    35    1
    40     6    36    1
    41     7    37    1
    42     8    38    1
    43     9    39    1
    44    10    40    1
    45    11    41    1
    46    12    42    1
    47    13    43    1
    48    13    44    1
    49    14    45    1
    50    14    46    1
    51    15    47    1
    52    15    48    1
    53    16    49    1
    54    16    50    1
    55    17    51    1
    56    17    52    1
    57    18    53    1
    58    18    54    1
    59    27    55    1
    60    27    56    1
    61    28    57    1
    62    29    58    1
@<TRIPOS>SUBSTRUCTURE
     1 <0>         1 TEMP              0 ****  ****    0 ROOT

