
##########                                Name:        BRE_397_1D3G
##########                    Molecular_Weight:             356.376
##########                DOCK_Rotatable_Bonds:                   3
##########                       Formal_Charge:             -0.9997
##########                     HBond_Acceptors:                   4
##########                        HBond_Donors:                   0
##########                         Heavy_Atoms:                  27
##########                            HA_RMSDs:              12.438
##########                            HA_RMSDh:              11.938
##########                            HA_RMSDm:               9.771
##########                          Grid_Score:           -8.576672
##########                     Grid_vdw_energy:          -28.632397
##########                      Grid_es_energy:           20.055725
##########           Internal_energy_repulsive:            9.194176

@<TRIPOS>MOLECULE
BRE_397_1D3G
 42 45 1 0 0
SMALL
USER_CHARGES


@<TRIPOS>ATOM
      1 C1         59.1045   48.4123   -9.2893 C.3     1  <0>        -0.0370
      2 C2         55.6256   47.8595   -0.5956 C.ar    1  <0>        -0.0617
      3 C3         55.8953   46.5965   -1.0904 C.ar    1  <0>        -0.0612
      4 C4         55.9603   48.9719   -1.3385 C.ar    1  <0>        -0.0612
      5 C5         56.5386   46.4677   -2.3108 C.ar    1  <0>        -0.0540
      6 C6         56.6121   48.8605   -2.5583 C.ar    1  <0>        -0.0540
      7 C7         58.6677   48.2563   -4.7478 C.ar    1  <0>        -0.0534
      8 C8         57.4453   46.2374   -5.1663 C.ar    1  <0>        -0.0534
      9 C9         59.4699   48.0752   -5.8528 C.ar    1  <0>        -0.0520
     10 C10        58.2373   46.0440   -6.2864 C.ar    1  <0>        -0.0520
     11 C11        63.6612   43.7737   -9.1672 C.ar    1  <0>        -0.0244
     12 C12        62.7824   44.2536   -8.2117 C.ar    1  <0>        -0.0330
     13 C13        62.8086   45.4140  -10.7016 C.ar    1  <0>        -0.0166
     14 C14        60.1081   47.3158   -8.9995 C.ar    1  <0>        -0.0150
     15 C15        56.8564   47.5970   -3.0838 C.ar    1  <0>        -0.0179
     16 C16        57.6500   47.3879   -4.3874 C.ar    1  <0>        -0.0178
     17 C17        59.2269   46.9369   -6.6289 C.ar    1  <0>         0.0007
     18 C18        63.6556   44.3556  -10.4257 C.ar    1  <0>         0.1241
     19 C19        61.9272   45.3159   -8.4866 C.ar    1  <0>         0.0725
     20 C20        61.9349   45.9128   -9.7415 C.ar    1  <0>         0.0122
     21 C21        61.0191   46.9376   -9.9813 C.ar    1  <0>         0.0115
     22 C22        60.1245   46.6561   -7.7852 C.ar    1  <0>         0.0752
     23 C23        61.0213   47.6691  -11.2966 C.2     1  <0>         0.0726
     24 N1         61.0666   45.7061   -7.5331 N.ar    1  <0>        -0.2464
     25 O1         61.7115   48.8277  -11.3198 O.co2   1  <0>        -0.5446
     26 O2         60.4640   47.2921  -12.2868 O.co2   1  <0>        -0.5446
     27 F1         64.3833   43.8841  -11.3120 F       1  <0>        -0.2055
     28 H1         58.1940   47.9719   -9.7216 H       1  <0>         0.0278
     29 H2         58.8513   48.9337   -8.3543 H       1  <0>         0.0278
     30 H3         59.5394   49.1282  -10.0023 H       1  <0>         0.0278
     31 H4         55.1543   47.9741    0.3694 H       1  <0>         0.0618
     32 H5         55.6073   45.7189   -0.5307 H       1  <0>         0.0618
     33 H6         55.7094   49.9525   -0.9621 H       1  <0>         0.0618
     34 H7         56.7996   45.4843   -2.6733 H       1  <0>         0.0624
     35 H8         56.9258   49.7448   -3.0931 H       1  <0>         0.0624
     36 H9         58.8418   49.1234   -4.1279 H       1  <0>         0.0624
     37 H10        56.6859   45.5180   -4.8976 H       1  <0>         0.0624
     38 H11        60.2490   48.7783   -6.1078 H       1  <0>         0.0624
     39 H12        58.0746   45.1734   -6.9044 H       1  <0>         0.0624
     40 H13        64.3369   42.9631   -8.9375 H       1  <0>         0.0647
     41 H14        62.7601   43.7947   -7.2343 H       1  <0>         0.0640
     42 H15        62.8262   45.8626  -11.6838 H       1  <0>         0.0653
@<TRIPOS>BOND
     1     1    14    1
     2     2     3   ar
     3     2     4   ar
     4     3     5   ar
     5     4     6   ar
     6     5    15   ar
     7     6    15   ar
     8     7     9   ar
     9     7    16   ar
    10     8    10   ar
    11     8    16   ar
    12     9    17   ar
    13    10    17   ar
    14    11    12   ar
    15    11    18   ar
    16    12    19   ar
    17    13    18   ar
    18    13    20   ar
    19    14    21   ar
    20    14    22   ar
    21    15    16    1
    22    17    22    1
    23    18    27    1
    24    19    20   ar
    25    19    24   ar
    26    20    21   ar
    27    21    23    1
    28    22    24   ar
    29    23    25    1
    30    23    26    2
    31     1    28    1
    32     1    29    1
    33     1    30    1
    34     2    31    1
    35     3    32    1
    36     4    33    1
    37     5    34    1
    38     6    35    1
    39     7    36    1
    40     8    37    1
    41     9    38    1
    42    10    39    1
    43    11    40    1
    44    12    41    1
    45    13    42    1
@<TRIPOS>SUBSTRUCTURE
     1 <0>         1 TEMP              0 ****  ****    0 ROOT

