
##########                                Name:        BRE_397_1D3G
##########                    Molecular_Weight:             356.376
##########                DOCK_Rotatable_Bonds:                   3
##########                       Formal_Charge:             -0.9997
##########                     HBond_Acceptors:                   4
##########                        HBond_Donors:                   0
##########                         Heavy_Atoms:                  27
##########                            HA_RMSDs:              13.525
##########                            HA_RMSDh:              12.904
##########                            HA_RMSDm:              10.853
##########                          Grid_Score:           -6.677902
##########                     Grid_vdw_energy:          -24.401249
##########                      Grid_es_energy:           17.723347
##########           Internal_energy_repulsive:            9.357560

@<TRIPOS>MOLECULE
BRE_397_1D3G
 42 45 1 0 0
SMALL
USER_CHARGES


@<TRIPOS>ATOM
      1 C1         61.9814   46.2727   -9.5311 C.3     1  <0>        -0.0370
      2 C2         56.2879   47.0822   -2.1057 C.ar    1  <0>        -0.0617
      3 C3         56.4313   48.2770   -2.7874 C.ar    1  <0>        -0.0612
      4 C4         56.8440   45.9298   -2.6193 C.ar    1  <0>        -0.0612
      5 C5         57.0978   48.2908   -4.0020 C.ar    1  <0>        -0.0540
      6 C6         57.5073   45.9248   -3.8380 C.ar    1  <0>        -0.0540
      7 C7         58.1831   46.1535   -6.8173 C.ar    1  <0>        -0.0534
      8 C8         58.9848   48.3613   -6.3395 C.ar    1  <0>        -0.0534
      9 C9         58.6625   46.1897   -8.1080 C.ar    1  <0>        -0.0520
     10 C10        59.4810   48.4114   -7.6319 C.ar    1  <0>        -0.0520
     11 C11        58.5106   49.2844  -14.1331 C.ar    1  <0>        -0.0244
     12 C12        58.2575   48.9939  -12.8038 C.ar    1  <0>        -0.0330
     13 C13        60.6169   48.1473  -13.9276 C.ar    1  <0>        -0.0166
     14 C14        60.9783   46.9794  -10.4188 C.ar    1  <0>        -0.0150
     15 C15        57.6900   47.1248   -4.5154 C.ar    1  <0>        -0.0179
     16 C16        58.3378   47.1906   -5.9116 C.ar    1  <0>        -0.0178
     17 C17        59.3288   47.3553   -8.5010 C.ar    1  <0>         0.0007
     18 C18        59.7112   48.8665  -14.6866 C.ar    1  <0>         0.1241
     19 C19        59.1673   48.2735  -12.0367 C.ar    1  <0>         0.0725
     20 C20        60.3622   47.8370  -12.5962 C.ar    1  <0>         0.0122
     21 C21        61.2629   47.1665  -11.7681 C.ar    1  <0>         0.0115
     22 C22        59.7902   47.4724   -9.9134 C.ar    1  <0>         0.0752
     23 C23        62.5442   46.6104  -12.3284 C.2     1  <0>         0.0726
     24 N1         58.8848   48.0627  -10.7413 N.ar    1  <0>        -0.2464
     25 O1         62.4063   45.5996  -13.2106 O.co2   1  <0>        -0.5446
     26 O2         63.6390   47.0023  -12.0438 O.co2   1  <0>        -0.5446
     27 F1         59.9820   49.1871  -15.8534 F       1  <0>        -0.2055
     28 H1         62.6782   47.0097   -9.1053 H       1  <0>         0.0278
     29 H2         61.4509   45.7568   -8.7172 H       1  <0>         0.0278
     30 H3         62.5437   45.5380  -10.1261 H       1  <0>         0.0278
     31 H4         55.7422   47.0520   -1.1742 H       1  <0>         0.0618
     32 H5         56.0275   49.1906   -2.3768 H       1  <0>         0.0618
     33 H6         56.7614   45.0096   -2.0601 H       1  <0>         0.0618
     34 H7         57.1632   49.2117   -4.5624 H       1  <0>         0.0624
     35 H8         57.8771   44.9999   -4.2553 H       1  <0>         0.0624
     36 H9         57.6573   45.2675   -6.4932 H       1  <0>         0.0624
     37 H10        59.0932   49.2054   -5.6745 H       1  <0>         0.0624
     38 H11        58.5304   45.3580   -8.7843 H       1  <0>         0.0624
     39 H12        59.9988   49.2989   -7.9648 H       1  <0>         0.0624
     40 H13        57.7882   49.8251  -14.7267 H       1  <0>         0.0647
     41 H14        57.3362   49.3330  -12.3534 H       1  <0>         0.0640
     42 H15        61.5419   47.8197  -14.3787 H       1  <0>         0.0653
@<TRIPOS>BOND
     1     1    14    1
     2     2     3   ar
     3     2     4   ar
     4     3     5   ar
     5     4     6   ar
     6     5    15   ar
     7     6    15   ar
     8     7     9   ar
     9     7    16   ar
    10     8    10   ar
    11     8    16   ar
    12     9    17   ar
    13    10    17   ar
    14    11    12   ar
    15    11    18   ar
    16    12    19   ar
    17    13    18   ar
    18    13    20   ar
    19    14    21   ar
    20    14    22   ar
    21    15    16    1
    22    17    22    1
    23    18    27    1
    24    19    20   ar
    25    19    24   ar
    26    20    21   ar
    27    21    23    1
    28    22    24   ar
    29    23    25    1
    30    23    26    2
    31     1    28    1
    32     1    29    1
    33     1    30    1
    34     2    31    1
    35     3    32    1
    36     4    33    1
    37     5    34    1
    38     6    35    1
    39     7    36    1
    40     8    37    1
    41     9    38    1
    42    10    39    1
    43    11    40    1
    44    12    41    1
    45    13    42    1
@<TRIPOS>SUBSTRUCTURE
     1 <0>         1 TEMP              0 ****  ****    0 ROOT

