
##########                                Name:        BRE_397_1D3G
##########                    Molecular_Weight:             356.376
##########                DOCK_Rotatable_Bonds:                   3
##########                       Formal_Charge:             -0.9997
##########                     HBond_Acceptors:                   4
##########                        HBond_Donors:                   0
##########                         Heavy_Atoms:                  27
##########                            HA_RMSDs:              11.226
##########                            HA_RMSDh:              10.249
##########                            HA_RMSDm:               8.733
##########                          Grid_Score:            1.141047
##########                     Grid_vdw_energy:          -19.578671
##########                      Grid_es_energy:           20.719717
##########           Internal_energy_repulsive:            8.623540

@<TRIPOS>MOLECULE
BRE_397_1D3G
 42 45 1 0 0
SMALL
USER_CHARGES


@<TRIPOS>ATOM
      1 C1         60.0742   48.3691   -5.6510 C.3     1  <0>        -0.0370
      2 C2         52.6917   46.1838   -0.3197 C.ar    1  <0>        -0.0617
      3 C3         52.4587   45.7342   -1.6066 C.ar    1  <0>        -0.0612
      4 C4         53.8804   46.8148   -0.0195 C.ar    1  <0>        -0.0612
      5 C5         53.4438   45.8872   -2.5689 C.ar    1  <0>        -0.0540
      6 C6         54.8802   46.9687   -0.9691 C.ar    1  <0>        -0.0540
      7 C7         57.0387   46.2416   -3.0855 C.ar    1  <0>        -0.0534
      8 C8         55.3912   46.9098   -4.6933 C.ar    1  <0>        -0.0534
      9 C9         58.0354   46.1870   -4.0346 C.ar    1  <0>        -0.0520
     10 C10        56.3834   46.8685   -5.6593 C.ar    1  <0>        -0.0520
     11 C11        59.7927   43.7990  -10.2694 C.ar    1  <0>        -0.0244
     12 C12        59.0146   44.0580   -9.1545 C.ar    1  <0>        -0.0330
     13 C13        61.2072   45.6382   -9.6464 C.ar    1  <0>        -0.0166
     14 C14        59.8099   47.2019   -6.5791 C.ar    1  <0>        -0.0150
     15 C15        54.6449   46.5541   -2.2748 C.ar    1  <0>        -0.0179
     16 C16        55.7326   46.6108   -3.3643 C.ar    1  <0>        -0.0178
     17 C17        57.6766   46.5177   -5.3458 C.ar    1  <0>         0.0007
     18 C18        60.8881   44.6121  -10.5175 C.ar    1  <0>         0.1241
     19 C19        59.3310   45.0909   -8.2779 C.ar    1  <0>         0.0725
     20 C20        60.4401   45.8939   -8.5150 C.ar    1  <0>         0.0122
     21 C21        60.6805   46.9495   -7.6350 C.ar    1  <0>         0.0115
     22 C22        58.7020   46.3911   -6.4201 C.ar    1  <0>         0.0752
     23 C23        61.9013   47.8144   -7.7981 C.2     1  <0>         0.0726
     24 N1         58.5119   45.3206   -7.2394 N.ar    1  <0>        -0.2464
     25 O1         62.9708   47.4618   -7.0558 O.co2   1  <0>        -0.5446
     26 O2         61.9717   48.7636   -8.5242 O.co2   1  <0>        -0.5446
     27 F1         61.5469   44.4379  -11.5534 F       1  <0>        -0.2055
     28 H1         59.5829   49.2707   -6.0458 H       1  <0>         0.0278
     29 H2         59.6739   48.1411   -4.6521 H       1  <0>         0.0278
     30 H3         61.1580   48.5434   -5.5808 H       1  <0>         0.0278
     31 H4         51.9451   46.0411    0.4476 H       1  <0>         0.0618
     32 H5         51.5178   45.2681   -1.8592 H       1  <0>         0.0618
     33 H6         54.0367   47.1982    0.9780 H       1  <0>         0.0618
     34 H7         53.2860   45.4878   -3.5599 H       1  <0>         0.0624
     35 H8         55.8299   47.4052   -0.6971 H       1  <0>         0.0624
     36 H9         57.2891   45.9823   -2.0675 H       1  <0>         0.0624
     37 H10        54.3758   47.1667   -4.9569 H       1  <0>         0.0624
     38 H11        59.0454   45.9026   -3.7788 H       1  <0>         0.0624
     39 H12        56.1365   47.1170   -6.6809 H       1  <0>         0.0624
     40 H13        59.5518   42.9809  -10.9321 H       1  <0>         0.0647
     41 H14        58.1453   43.4468   -8.9614 H       1  <0>         0.0640
     42 H15        62.0710   46.2540   -9.8493 H       1  <0>         0.0653
@<TRIPOS>BOND
     1     1    14    1
     2     2     3   ar
     3     2     4   ar
     4     3     5   ar
     5     4     6   ar
     6     5    15   ar
     7     6    15   ar
     8     7     9   ar
     9     7    16   ar
    10     8    10   ar
    11     8    16   ar
    12     9    17   ar
    13    10    17   ar
    14    11    12   ar
    15    11    18   ar
    16    12    19   ar
    17    13    18   ar
    18    13    20   ar
    19    14    21   ar
    20    14    22   ar
    21    15    16    1
    22    17    22    1
    23    18    27    1
    24    19    20   ar
    25    19    24   ar
    26    20    21   ar
    27    21    23    1
    28    22    24   ar
    29    23    25    1
    30    23    26    2
    31     1    28    1
    32     1    29    1
    33     1    30    1
    34     2    31    1
    35     3    32    1
    36     4    33    1
    37     5    34    1
    38     6    35    1
    39     7    36    1
    40     8    37    1
    41     9    38    1
    42    10    39    1
    43    11    40    1
    44    12    41    1
    45    13    42    1
@<TRIPOS>SUBSTRUCTURE
     1 <0>         1 TEMP              0 ****  ****    0 ROOT

