
##########                                Name:        BRE_397_1D3G
##########                    Molecular_Weight:             356.376
##########                DOCK_Rotatable_Bonds:                   3
##########                       Formal_Charge:             -0.9997
##########                     HBond_Acceptors:                   4
##########                        HBond_Donors:                   0
##########                         Heavy_Atoms:                  27
##########                            HA_RMSDs:              12.181
##########                            HA_RMSDh:              11.086
##########                            HA_RMSDm:               9.061
##########                          Grid_Score:           -5.647486
##########                     Grid_vdw_energy:          -26.788294
##########                      Grid_es_energy:           21.140808
##########           Internal_energy_repulsive:           15.004903

@<TRIPOS>MOLECULE
BRE_397_1D3G
 42 45 1 0 0
SMALL
USER_CHARGES


@<TRIPOS>ATOM
      1 C1         60.1264   45.4639   -7.4719 C.3     1  <0>        -0.0370
      2 C2         53.9871   46.5375   -0.6063 C.ar    1  <0>        -0.0617
      3 C3         53.5244   47.1236   -1.7703 C.ar    1  <0>        -0.0612
      4 C4         55.3139   46.1773   -0.5014 C.ar    1  <0>        -0.0612
      5 C5         54.3946   47.3024   -2.8337 C.ar    1  <0>        -0.0540
      6 C6         56.1963   46.3419   -1.5595 C.ar    1  <0>        -0.0540
      7 C7         56.6432   46.1342   -4.9591 C.ar    1  <0>        -0.0534
      8 C8         57.3754   48.2833   -4.1903 C.ar    1  <0>        -0.0534
      9 C9         57.3499   46.2436   -6.1363 C.ar    1  <0>        -0.0520
     10 C10        58.0992   48.4062   -5.3652 C.ar    1  <0>        -0.0520
     11 C11        59.2493   50.7158  -11.2060 C.ar    1  <0>        -0.0244
     12 C12        58.6579   50.2893  -10.0296 C.ar    1  <0>        -0.0330
     13 C13        60.5559   48.6997  -11.2202 C.ar    1  <0>        -0.0166
     14 C14        59.7203   46.7427   -8.1742 C.ar    1  <0>        -0.0150
     15 C15        55.7532   46.9627   -2.7216 C.ar    1  <0>        -0.0179
     16 C16        56.6451   47.1042   -3.9697 C.ar    1  <0>        -0.0178
     17 C17        58.0928   47.4148   -6.3196 C.ar    1  <0>         0.0007
     18 C18        60.2175   49.9137  -11.7907 C.ar    1  <0>         0.1241
     19 C19        58.9979   49.0704   -9.4516 C.ar    1  <0>         0.0725
     20 C20        59.9539   48.2567  -10.0476 C.ar    1  <0>         0.0122
     21 C21        60.2970   47.0709   -9.3975 C.ar    1  <0>         0.0115
     22 C22        58.8051   47.6135   -7.6137 C.ar    1  <0>         0.0752
     23 C23        61.2760   46.1145  -10.0236 C.2     1  <0>         0.0726
     24 N1         58.4223   48.7334   -8.2867 N.ar    1  <0>        -0.2464
     25 O1         60.7588   44.9435  -10.4484 O.co2   1  <0>        -0.5446
     26 O2         62.4459   46.3290  -10.1597 O.co2   1  <0>        -0.5446
     27 F1         60.8085   50.3207  -12.8019 F       1  <0>        -0.2055
     28 H1         60.9881   45.6620   -6.8176 H       1  <0>         0.0278
     29 H2         59.2846   45.0943   -6.8678 H       1  <0>         0.0278
     30 H3         60.4012   44.7061   -8.2204 H       1  <0>         0.0278
     31 H4         53.3114   46.3625    0.2179 H       1  <0>         0.0618
     32 H5         52.4946   47.4390   -1.8498 H       1  <0>         0.0618
     33 H6         55.6747   45.7573    0.4258 H       1  <0>         0.0618
     34 H7         54.0228   47.7091   -3.7626 H       1  <0>         0.0624
     35 H8         57.2150   45.9919   -1.4812 H       1  <0>         0.0624
     36 H9         56.0549   45.2429   -4.7984 H       1  <0>         0.0624
     37 H10        57.3728   49.0780   -3.4590 H       1  <0>         0.0624
     38 H11        57.3314   45.4627   -6.8821 H       1  <0>         0.0624
     39 H12        58.6812   49.2999   -5.5358 H       1  <0>         0.0624
     40 H13        58.9627   51.6534  -11.6590 H       1  <0>         0.0647
     41 H14        57.9186   50.9146   -9.5513 H       1  <0>         0.0640
     42 H15        61.3038   48.0826  -11.6959 H       1  <0>         0.0653
@<TRIPOS>BOND
     1     1    14    1
     2     2     3   ar
     3     2     4   ar
     4     3     5   ar
     5     4     6   ar
     6     5    15   ar
     7     6    15   ar
     8     7     9   ar
     9     7    16   ar
    10     8    10   ar
    11     8    16   ar
    12     9    17   ar
    13    10    17   ar
    14    11    12   ar
    15    11    18   ar
    16    12    19   ar
    17    13    18   ar
    18    13    20   ar
    19    14    21   ar
    20    14    22   ar
    21    15    16    1
    22    17    22    1
    23    18    27    1
    24    19    20   ar
    25    19    24   ar
    26    20    21   ar
    27    21    23    1
    28    22    24   ar
    29    23    25    1
    30    23    26    2
    31     1    28    1
    32     1    29    1
    33     1    30    1
    34     2    31    1
    35     3    32    1
    36     4    33    1
    37     5    34    1
    38     6    35    1
    39     7    36    1
    40     8    37    1
    41     9    38    1
    42    10    39    1
    43    11    40    1
    44    12    41    1
    45    13    42    1
@<TRIPOS>SUBSTRUCTURE
     1 <0>         1 TEMP              0 ****  ****    0 ROOT

