
##########                                Name:        BRE_397_1D3G
##########                    Molecular_Weight:             356.376
##########                DOCK_Rotatable_Bonds:                   3
##########                       Formal_Charge:             -0.9997
##########                     HBond_Acceptors:                   4
##########                        HBond_Donors:                   0
##########                         Heavy_Atoms:                  27
##########                            HA_RMSDs:              12.076
##########                            HA_RMSDh:              11.395
##########                            HA_RMSDm:               9.538
##########                          Grid_Score:           -8.993221
##########                     Grid_vdw_energy:          -29.007225
##########                      Grid_es_energy:           20.014004
##########           Internal_energy_repulsive:            8.267500

@<TRIPOS>MOLECULE
BRE_397_1D3G
 42 45 1 0 0
SMALL
USER_CHARGES


@<TRIPOS>ATOM
      1 C1         61.1091   45.5919   -7.5096 C.3     1  <0>        -0.0370
      2 C2         54.4625   46.9414   -1.0935 C.ar    1  <0>        -0.0617
      3 C3         53.9797   47.4015   -2.3051 C.ar    1  <0>        -0.0612
      4 C4         55.7702   46.5155   -0.9946 C.ar    1  <0>        -0.0612
      5 C5         54.8077   47.3882   -3.4159 C.ar    1  <0>        -0.0540
      6 C6         56.6098   46.4880   -2.0990 C.ar    1  <0>        -0.0540
      7 C7         57.2668   45.6874   -5.2006 C.ar    1  <0>        -0.0534
      8 C8         57.3708   48.0811   -5.2708 C.ar    1  <0>        -0.0534
      9 C9         57.9353   45.5595   -6.3981 C.ar    1  <0>        -0.0520
     10 C10        58.0519   47.9707   -6.4721 C.ar    1  <0>        -0.0520
     11 C11        58.2862   47.7665  -12.9499 C.ar    1  <0>        -0.0244
     12 C12        57.8540   47.6754  -11.6383 C.ar    1  <0>        -0.0330
     13 C13        60.3519   46.7341  -12.2873 C.ar    1  <0>        -0.0166
     14 C14        60.2334   46.1262   -8.6236 C.ar    1  <0>        -0.0150
     15 C15        56.1486   46.9815   -3.3139 C.ar    1  <0>        -0.0179
     16 C16        56.9875   46.9062   -4.6038 C.ar    1  <0>        -0.0178
     17 C17        58.3322   46.7437   -7.0285 C.ar    1  <0>         0.0007
     18 C18        59.5547   47.3031  -13.2642 C.ar    1  <0>         0.1241
     19 C19        58.6542   47.1064  -10.6527 C.ar    1  <0>         0.0725
     20 C20        59.9179   46.6235  -10.9708 C.ar    1  <0>         0.0122
     21 C21        60.7003   46.1131   -9.9345 C.ar    1  <0>         0.0115
     22 C22        58.9834   46.6568   -8.3664 C.ar    1  <0>         0.0752
     23 C23        62.0506   45.5144  -10.2232 C.2     1  <0>         0.0726
     24 N1         58.1970   47.0880   -9.3907 N.ar    1  <0>        -0.2464
     25 O1         62.0865   44.1691  -10.3125 O.co2   1  <0>        -0.5446
     26 O2         63.0575   46.1446  -10.3721 O.co2   1  <0>        -0.5446
     27 F1         59.9819   47.4494  -14.4191 F       1  <0>        -0.2055
     28 H1         61.7353   46.4046   -7.1128 H       1  <0>         0.0278
     29 H2         60.4750   45.1915   -6.7049 H       1  <0>         0.0278
     30 H3         61.7533   44.7911   -7.9018 H       1  <0>         0.0278
     31 H4         53.8174   46.9158   -0.2277 H       1  <0>         0.0618
     32 H5         52.9669   47.7677   -2.3845 H       1  <0>         0.0618
     33 H6         56.1497   46.1959   -0.0354 H       1  <0>         0.0618
     34 H7         54.4164   47.6950   -4.3747 H       1  <0>         0.0624
     35 H8         57.6096   46.0881   -2.0156 H       1  <0>         0.0624
     36 H9         56.9424   44.7876   -4.6991 H       1  <0>         0.0624
     37 H10        57.1392   49.0509   -4.8557 H       1  <0>         0.0624
     38 H11        58.1430   44.5916   -6.8297 H       1  <0>         0.0624
     39 H12        58.3699   48.8675   -6.9832 H       1  <0>         0.0624
     40 H13        57.6491   48.1897  -13.7124 H       1  <0>         0.0647
     41 H14        56.8771   48.0531  -11.3749 H       1  <0>         0.0640
     42 H15        61.3326   46.3677  -12.5528 H       1  <0>         0.0653
@<TRIPOS>BOND
     1     1    14    1
     2     2     3   ar
     3     2     4   ar
     4     3     5   ar
     5     4     6   ar
     6     5    15   ar
     7     6    15   ar
     8     7     9   ar
     9     7    16   ar
    10     8    10   ar
    11     8    16   ar
    12     9    17   ar
    13    10    17   ar
    14    11    12   ar
    15    11    18   ar
    16    12    19   ar
    17    13    18   ar
    18    13    20   ar
    19    14    21   ar
    20    14    22   ar
    21    15    16    1
    22    17    22    1
    23    18    27    1
    24    19    20   ar
    25    19    24   ar
    26    20    21   ar
    27    21    23    1
    28    22    24   ar
    29    23    25    1
    30    23    26    2
    31     1    28    1
    32     1    29    1
    33     1    30    1
    34     2    31    1
    35     3    32    1
    36     4    33    1
    37     5    34    1
    38     6    35    1
    39     7    36    1
    40     8    37    1
    41     9    38    1
    42    10    39    1
    43    11    40    1
    44    12    41    1
    45    13    42    1
@<TRIPOS>SUBSTRUCTURE
     1 <0>         1 TEMP              0 ****  ****    0 ROOT

