
##########                                Name:        BRE_397_1D3G
##########                    Molecular_Weight:             356.376
##########                DOCK_Rotatable_Bonds:                   3
##########                       Formal_Charge:             -0.9997
##########                     HBond_Acceptors:                   4
##########                        HBond_Donors:                   0
##########                         Heavy_Atoms:                  27
##########                            HA_RMSDs:              13.714
##########                            HA_RMSDh:              13.151
##########                            HA_RMSDm:              11.265
##########                          Grid_Score:           -6.390486
##########                     Grid_vdw_energy:          -24.029669
##########                      Grid_es_energy:           17.639183
##########           Internal_energy_repulsive:            6.938654

@<TRIPOS>MOLECULE
BRE_397_1D3G
 42 45 1 0 0
SMALL
USER_CHARGES


@<TRIPOS>ATOM
      1 C1         59.9298   50.0884  -10.5057 C.3     1  <0>        -0.0370
      2 C2         56.6306   46.6855   -2.4204 C.ar    1  <0>        -0.0617
      3 C3         56.5866   45.6827   -3.3717 C.ar    1  <0>        -0.0612
      4 C4         57.1043   47.9343   -2.7632 C.ar    1  <0>        -0.0612
      5 C5         57.0602   45.9361   -4.6489 C.ar    1  <0>        -0.0540
      6 C6         57.5898   48.2022   -4.0351 C.ar    1  <0>        -0.0540
      7 C7         59.4634   47.6612   -6.5914 C.ar    1  <0>        -0.0534
      8 C8         57.3221   47.1869   -7.5586 C.ar    1  <0>        -0.0534
      9 C9         60.0709   47.7540   -7.8241 C.ar    1  <0>        -0.0520
     10 C10        57.9151   47.2852   -8.8068 C.ar    1  <0>        -0.0520
     11 C11        61.4317   44.6401  -13.7236 C.ar    1  <0>        -0.0244
     12 C12        60.9218   44.8744  -12.4585 C.ar    1  <0>        -0.0330
     13 C13        61.5590   47.0160  -14.0567 C.ar    1  <0>        -0.0166
     14 C14        60.2203   48.6957  -11.0248 C.ar    1  <0>        -0.0150
     15 C15        57.5177   47.2143   -5.0104 C.ar    1  <0>        -0.0179
     16 C16        58.1129   47.4040   -6.4185 C.ar    1  <0>        -0.0178
     17 C17        59.2559   47.5626   -8.9449 C.ar    1  <0>         0.0007
     18 C18        61.7353   45.7276  -14.5285 C.ar    1  <0>         0.1241
     19 C19        60.7405   46.1688  -11.9819 C.ar    1  <0>         0.0725
     20 C20        61.0632   47.2593  -12.7805 C.ar    1  <0>         0.0122
     21 C21        60.8105   48.5348  -12.2748 C.ar    1  <0>         0.0115
     22 C22        59.8860   47.5703  -10.2956 C.ar    1  <0>         0.0752
     23 C23        61.1984   49.7573  -13.0624 C.2     1  <0>         0.0726
     24 N1         60.1998   46.3310  -10.7639 N.ar    1  <0>        -0.2464
     25 O1         62.4167   50.2670  -12.7881 O.co2   1  <0>        -0.5446
     26 O2         60.5093   50.2825  -13.8885 O.co2   1  <0>        -0.5446
     27 F1         62.1199   45.5297  -15.6906 F       1  <0>        -0.2055
     28 H1         58.9252   50.3987  -10.8291 H       1  <0>         0.0278
     29 H2         59.9769   50.0870   -9.4066 H       1  <0>         0.0278
     30 H3         60.6764   50.7912  -10.9039 H       1  <0>         0.0278
     31 H4         56.2951   46.4913   -1.4124 H       1  <0>         0.0618
     32 H5         56.1869   44.7111   -3.1214 H       1  <0>         0.0618
     33 H6         57.0973   48.7221   -2.0245 H       1  <0>         0.0618
     34 H7         57.0779   45.1390   -5.3775 H       1  <0>         0.0624
     35 H8         58.0185   49.1665   -4.2646 H       1  <0>         0.0624
     36 H9         60.0736   47.7965   -5.7106 H       1  <0>         0.0624
     37 H10        56.2730   46.9482   -7.4642 H       1  <0>         0.0624
     38 H11        61.1258   47.9643   -7.9207 H       1  <0>         0.0624
     39 H12        57.3118   47.1408   -9.6909 H       1  <0>         0.0624
     40 H13        61.5898   43.6316  -14.0765 H       1  <0>         0.0647
     41 H14        60.6597   44.0366  -11.8293 H       1  <0>         0.0640
     42 H15        61.8119   47.8509  -14.6934 H       1  <0>         0.0653
@<TRIPOS>BOND
     1     1    14    1
     2     2     3   ar
     3     2     4   ar
     4     3     5   ar
     5     4     6   ar
     6     5    15   ar
     7     6    15   ar
     8     7     9   ar
     9     7    16   ar
    10     8    10   ar
    11     8    16   ar
    12     9    17   ar
    13    10    17   ar
    14    11    12   ar
    15    11    18   ar
    16    12    19   ar
    17    13    18   ar
    18    13    20   ar
    19    14    21   ar
    20    14    22   ar
    21    15    16    1
    22    17    22    1
    23    18    27    1
    24    19    20   ar
    25    19    24   ar
    26    20    21   ar
    27    21    23    1
    28    22    24   ar
    29    23    25    1
    30    23    26    2
    31     1    28    1
    32     1    29    1
    33     1    30    1
    34     2    31    1
    35     3    32    1
    36     4    33    1
    37     5    34    1
    38     6    35    1
    39     7    36    1
    40     8    37    1
    41     9    38    1
    42    10    39    1
    43    11    40    1
    44    12    41    1
    45    13    42    1
@<TRIPOS>SUBSTRUCTURE
     1 <0>         1 TEMP              0 ****  ****    0 ROOT

