
##########                                Name:        BRE_397_1D3G
##########                    Molecular_Weight:             356.376
##########                DOCK_Rotatable_Bonds:                   3
##########                       Formal_Charge:             -0.9997
##########                     HBond_Acceptors:                   4
##########                        HBond_Donors:                   0
##########                         Heavy_Atoms:                  27
##########                            HA_RMSDs:              12.379
##########                            HA_RMSDh:              12.047
##########                            HA_RMSDm:               9.983
##########                          Grid_Score:           -3.794607
##########                     Grid_vdw_energy:          -23.067207
##########                      Grid_es_energy:           19.272600
##########           Internal_energy_repulsive:           14.642475

@<TRIPOS>MOLECULE
BRE_397_1D3G
 42 45 1 0 0
SMALL
USER_CHARGES


@<TRIPOS>ATOM
      1 C1         59.7721   48.6337   -9.9419 C.3     1  <0>        -0.0370
      2 C2         55.6560   48.7555   -1.4972 C.ar    1  <0>        -0.0617
      3 C3         55.0966   47.9131   -2.4407 C.ar    1  <0>        -0.0612
      4 C4         56.8640   49.3678   -1.7564 C.ar    1  <0>        -0.0612
      5 C5         55.7808   47.6628   -3.6192 C.ar    1  <0>        -0.0540
      6 C6         57.5658   49.1215   -2.9277 C.ar    1  <0>        -0.0540
      7 C7         59.1107   48.1403   -5.3119 C.ar    1  <0>        -0.0534
      8 C8         57.0932   47.2011   -6.2024 C.ar    1  <0>        -0.0534
      9 C9         59.8542   47.7358   -6.3984 C.ar    1  <0>        -0.0520
     10 C10        57.8240   46.7943   -7.3067 C.ar    1  <0>        -0.0520
     11 C11        62.1657   42.5888  -10.0986 C.ar    1  <0>        -0.0244
     12 C12        61.4913   43.3080   -9.1272 C.ar    1  <0>        -0.0330
     13 C13        62.0974   44.5308  -11.5114 C.ar    1  <0>        -0.0166
     14 C14        60.2563   47.2159   -9.7208 C.ar    1  <0>        -0.0150
     15 C15        56.9981   48.3059   -3.8996 C.ar    1  <0>        -0.0179
     16 C16        57.7493   47.9148   -5.1864 C.ar    1  <0>        -0.0178
     17 C17        59.1718   47.0523   -7.4105 C.ar    1  <0>         0.0007
     18 C18        62.4529   43.2100  -11.3045 C.ar    1  <0>         0.1241
     19 C19        61.1297   44.6355   -9.3330 C.ar    1  <0>         0.0725
     20 C20        61.4348   45.2650  -10.5338 C.ar    1  <0>         0.0122
     21 C21        61.0010   46.5794  -10.7091 C.ar    1  <0>         0.0115
     22 C22        59.9512   46.5221   -8.5650 C.ar    1  <0>         0.0752
     23 C23        61.3564   47.3387  -11.9591 C.2     1  <0>         0.0726
     24 N1         60.4375   45.2654   -8.3707 N.ar    1  <0>        -0.2464
     25 O1         62.2910   48.3000  -11.8131 O.co2   1  <0>        -0.5446
     26 O2         60.8719   47.1427  -13.0361 O.co2   1  <0>        -0.5446
     27 F1         62.9878   42.5528  -12.2097 F       1  <0>        -0.2055
     28 H1         58.7865   48.6132  -10.4301 H       1  <0>         0.0278
     29 H2         59.6907   49.1485   -8.9732 H       1  <0>         0.0278
     30 H3         60.4875   49.1695  -10.5831 H       1  <0>         0.0278
     31 H4         55.1484   48.9331   -0.5606 H       1  <0>         0.0618
     32 H5         54.1354   47.4548   -2.2605 H       1  <0>         0.0618
     33 H6         57.2733   50.0551   -1.0308 H       1  <0>         0.0618
     34 H7         55.3723   46.9627   -4.3331 H       1  <0>         0.0624
     35 H8         58.5414   49.5582   -3.0824 H       1  <0>         0.0624
     36 H9         59.6169   48.6623   -4.5133 H       1  <0>         0.0624
     37 H10        56.0402   46.9739   -6.1244 H       1  <0>         0.0624
     38 H11        60.9132   47.9366   -6.4659 H       1  <0>         0.0624
     39 H12        57.3251   46.2630   -8.1038 H       1  <0>         0.0624
     40 H13        62.4619   41.5655   -9.9211 H       1  <0>         0.0647
     41 H14        61.2411   42.8296   -8.1918 H       1  <0>         0.0640
     42 H15        62.3397   45.0019  -12.4525 H       1  <0>         0.0653
@<TRIPOS>BOND
     1     1    14    1
     2     2     3   ar
     3     2     4   ar
     4     3     5   ar
     5     4     6   ar
     6     5    15   ar
     7     6    15   ar
     8     7     9   ar
     9     7    16   ar
    10     8    10   ar
    11     8    16   ar
    12     9    17   ar
    13    10    17   ar
    14    11    12   ar
    15    11    18   ar
    16    12    19   ar
    17    13    18   ar
    18    13    20   ar
    19    14    21   ar
    20    14    22   ar
    21    15    16    1
    22    17    22    1
    23    18    27    1
    24    19    20   ar
    25    19    24   ar
    26    20    21   ar
    27    21    23    1
    28    22    24   ar
    29    23    25    1
    30    23    26    2
    31     1    28    1
    32     1    29    1
    33     1    30    1
    34     2    31    1
    35     3    32    1
    36     4    33    1
    37     5    34    1
    38     6    35    1
    39     7    36    1
    40     8    37    1
    41     9    38    1
    42    10    39    1
    43    11    40    1
    44    12    41    1
    45    13    42    1
@<TRIPOS>SUBSTRUCTURE
     1 <0>         1 TEMP              0 ****  ****    0 ROOT

