
##########                                Name:        BRE_397_1D3G
##########                    Molecular_Weight:             356.376
##########                DOCK_Rotatable_Bonds:                   3
##########                       Formal_Charge:             -0.9997
##########                     HBond_Acceptors:                   4
##########                        HBond_Donors:                   0
##########                         Heavy_Atoms:                  27
##########                            HA_RMSDs:              10.725
##########                            HA_RMSDh:               8.038
##########                            HA_RMSDm:               7.158
##########                          Grid_Score:           11.366520
##########                     Grid_vdw_energy:          -23.342316
##########                      Grid_es_energy:           34.708836
##########           Internal_energy_repulsive:           33.503799

@<TRIPOS>MOLECULE
BRE_397_1D3G
 42 45 1 0 0
SMALL
USER_CHARGES


@<TRIPOS>ATOM
      1 C1         56.1945   49.1796   -1.3474 C.3     1  <0>        -0.0370
      2 C2         49.6465   42.5772   -1.2393 C.ar    1  <0>        -0.0617
      3 C3         50.3227   42.4519   -2.4391 C.ar    1  <0>        -0.0612
      4 C4         49.9557   43.6135   -0.3839 C.ar    1  <0>        -0.0612
      5 C5         51.3339   43.3480   -2.7463 C.ar    1  <0>        -0.0540
      6 C6         50.9708   44.5143   -0.6726 C.ar    1  <0>        -0.0540
      7 C7         53.7493   45.7027   -1.2852 C.ar    1  <0>        -0.0534
      8 C8         53.0761   45.6784   -3.5856 C.ar    1  <0>        -0.0534
      9 C9         54.8824   46.4366   -1.5583 C.ar    1  <0>        -0.0520
     10 C10        54.2067   46.4241   -3.8769 C.ar    1  <0>        -0.0520
     11 C11        59.8440   47.5823   -6.4880 C.ar    1  <0>        -0.0244
     12 C12        58.7061   47.0233   -5.9327 C.ar    1  <0>        -0.0330
     13 C13        59.8440   49.2107   -4.7215 C.ar    1  <0>        -0.0166
     14 C14        56.8853   48.5925   -2.5605 C.ar    1  <0>        -0.0150
     15 C15        51.6335   44.4216   -1.8910 C.ar    1  <0>        -0.0179
     16 C16        52.8272   45.3271   -2.2488 C.ar    1  <0>        -0.0178
     17 C17        55.0928   46.7991   -2.8930 C.ar    1  <0>         0.0007
     18 C18        60.4016   48.6958   -5.8781 C.ar    1  <0>         0.1241
     19 C19        58.1411   47.5403   -4.7713 C.ar    1  <0>         0.0725
     20 C20        58.7108   48.6442   -4.1483 C.ar    1  <0>         0.0122
     21 C21        58.0729   49.1557   -3.0178 C.ar    1  <0>         0.0115
     22 C22        56.3478   47.5206   -3.2477 C.ar    1  <0>         0.0752
     23 C23        58.6749   50.3076   -2.2590 C.2     1  <0>         0.0726
     24 N1         57.0119   46.9821   -4.3072 N.ar    1  <0>        -0.2464
     25 O1         59.9606   50.1512   -1.8824 O.co2   1  <0>        -0.5446
     26 O2         58.0956   51.3179   -1.9817 O.co2   1  <0>        -0.5446
     27 F1         61.3749   49.2509   -6.4091 F       1  <0>        -0.2055
     28 H1         55.4968   49.9674   -1.6677 H       1  <0>         0.0278
     29 H2         55.6384   48.3882   -0.8235 H       1  <0>         0.0278
     30 H3         56.9466   49.6096   -0.6697 H       1  <0>         0.0278
     31 H4         48.8787   41.8657   -0.9732 H       1  <0>         0.0618
     32 H5         50.0651   41.6629   -3.1302 H       1  <0>         0.0618
     33 H6         49.3947   43.7267    0.5320 H       1  <0>         0.0618
     34 H7         51.9003   43.2192   -3.6568 H       1  <0>         0.0624
     35 H8         51.2427   45.2783    0.0407 H       1  <0>         0.0624
     36 H9         53.5695   45.4034   -0.2632 H       1  <0>         0.0624
     37 H10        52.3999   45.3733   -4.3705 H       1  <0>         0.0624
     38 H11        55.5753   46.7187   -0.7793 H       1  <0>         0.0624
     39 H12        54.3969   46.7177   -4.8987 H       1  <0>         0.0624
     40 H13        60.2881   47.1603   -7.3774 H       1  <0>         0.0647
     41 H14        58.2482   46.1695   -6.4101 H       1  <0>         0.0640
     42 H15        60.2987   50.0714   -4.2536 H       1  <0>         0.0653
@<TRIPOS>BOND
     1     1    14    1
     2     2     3   ar
     3     2     4   ar
     4     3     5   ar
     5     4     6   ar
     6     5    15   ar
     7     6    15   ar
     8     7     9   ar
     9     7    16   ar
    10     8    10   ar
    11     8    16   ar
    12     9    17   ar
    13    10    17   ar
    14    11    12   ar
    15    11    18   ar
    16    12    19   ar
    17    13    18   ar
    18    13    20   ar
    19    14    21   ar
    20    14    22   ar
    21    15    16    1
    22    17    22    1
    23    18    27    1
    24    19    20   ar
    25    19    24   ar
    26    20    21   ar
    27    21    23    1
    28    22    24   ar
    29    23    25    1
    30    23    26    2
    31     1    28    1
    32     1    29    1
    33     1    30    1
    34     2    31    1
    35     3    32    1
    36     4    33    1
    37     5    34    1
    38     6    35    1
    39     7    36    1
    40     8    37    1
    41     9    38    1
    42    10    39    1
    43    11    40    1
    44    12    41    1
    45    13    42    1
@<TRIPOS>SUBSTRUCTURE
     1 <0>         1 TEMP              0 ****  ****    0 ROOT

