
##########                                Name:        BRE_397_1D3G
##########                    Molecular_Weight:             356.376
##########                DOCK_Rotatable_Bonds:                   3
##########                       Formal_Charge:             -0.9997
##########                     HBond_Acceptors:                   4
##########                        HBond_Donors:                   0
##########                         Heavy_Atoms:                  27
##########                            HA_RMSDs:              12.829
##########                            HA_RMSDh:              11.621
##########                            HA_RMSDm:               9.503
##########                          Grid_Score:           -4.819319
##########                     Grid_vdw_energy:          -24.763786
##########                      Grid_es_energy:           19.944468
##########           Internal_energy_repulsive:           19.822912

@<TRIPOS>MOLECULE
BRE_397_1D3G
 42 45 1 0 0
SMALL
USER_CHARGES


@<TRIPOS>ATOM
      1 C1         60.5528   46.7378   -7.8793 C.3     1  <0>        -0.0370
      2 C2         54.2168   46.2206   -1.1213 C.ar    1  <0>        -0.0617
      3 C3         53.7023   46.9197   -2.1979 C.ar    1  <0>        -0.0612
      4 C4         55.5708   45.9688   -1.0521 C.ar    1  <0>        -0.0612
      5 C5         54.5519   47.3217   -3.2160 C.ar    1  <0>        -0.0540
      6 C6         56.4338   46.3572   -2.0668 C.ar    1  <0>        -0.0540
      7 C7         56.9733   46.6218   -5.4140 C.ar    1  <0>        -0.0534
      8 C8         57.3485   48.7784   -4.4373 C.ar    1  <0>        -0.0534
      9 C9         57.6690   46.9478   -6.5572 C.ar    1  <0>        -0.0520
     10 C10        58.0589   49.1201   -5.5765 C.ar    1  <0>        -0.0520
     11 C11        58.9030   52.1067  -11.1577 C.ar    1  <0>        -0.0244
     12 C12        58.3714   51.4869  -10.0401 C.ar    1  <0>        -0.0330
     13 C13        60.5128   50.3302  -11.3140 C.ar    1  <0>        -0.0166
     14 C14        59.9583   47.9959   -8.4768 C.ar    1  <0>        -0.0150
     15 C15        55.9356   47.0920   -3.1365 C.ar    1  <0>        -0.0179
     16 C16        56.8100   47.4849   -4.3425 C.ar    1  <0>        -0.0178
     17 C17        58.2207   48.2321   -6.6152 C.ar    1  <0>         0.0007
     18 C18        59.9937   51.5232  -11.7841 C.ar    1  <0>         0.1241
     19 C19        58.8927   50.2887   -9.5629 C.ar    1  <0>         0.0725
     20 C20        59.9734   49.6928  -10.2020 C.ar    1  <0>         0.0122
     21 C21        60.4916   48.5210   -9.6500 C.ar    1  <0>         0.0115
     22 C22        58.9093   48.6575   -7.8668 C.ar    1  <0>         0.0752
     23 C23        61.6180   47.7912  -10.3311 C.2     1  <0>         0.0726
     24 N1         58.3626   49.7604   -8.4485 N.ar    1  <0>        -0.2464
     25 O1         61.3460   46.5286  -10.7196 O.co2   1  <0>        -0.5446
     26 O2         62.7025   48.2539  -10.5388 O.co2   1  <0>        -0.5446
     27 F1         60.5258   52.1085  -12.7389 F       1  <0>        -0.2055
     28 H1         61.3636   47.0078   -7.1866 H       1  <0>         0.0278
     29 H2         59.7725   46.1871   -7.3334 H       1  <0>         0.0278
     30 H3         60.9542   46.1041   -8.6839 H       1  <0>         0.0278
     31 H4         53.5603   45.8730   -0.3373 H       1  <0>         0.0618
     32 H5         52.6482   47.1501   -2.2447 H       1  <0>         0.0618
     33 H6         55.9687   45.4575   -0.1882 H       1  <0>         0.0618
     34 H7         54.1442   47.8191   -4.0837 H       1  <0>         0.0624
     35 H8         57.4798   46.0918   -2.0261 H       1  <0>         0.0624
     36 H9         56.5306   45.6388   -5.3493 H       1  <0>         0.0624
     37 H10        57.2117   49.4922   -3.6384 H       1  <0>         0.0624
     38 H11        57.7831   46.2456   -7.3699 H       1  <0>         0.0624
     39 H12        58.4953   50.1053   -5.6511 H       1  <0>         0.0624
     40 H13        58.4773   53.0252  -11.5338 H       1  <0>         0.0647
     41 H14        57.5360   51.9422   -9.5289 H       1  <0>         0.0640
     42 H15        61.3553   49.8841  -11.8217 H       1  <0>         0.0653
@<TRIPOS>BOND
     1     1    14    1
     2     2     3   ar
     3     2     4   ar
     4     3     5   ar
     5     4     6   ar
     6     5    15   ar
     7     6    15   ar
     8     7     9   ar
     9     7    16   ar
    10     8    10   ar
    11     8    16   ar
    12     9    17   ar
    13    10    17   ar
    14    11    12   ar
    15    11    18   ar
    16    12    19   ar
    17    13    18   ar
    18    13    20   ar
    19    14    21   ar
    20    14    22   ar
    21    15    16    1
    22    17    22    1
    23    18    27    1
    24    19    20   ar
    25    19    24   ar
    26    20    21   ar
    27    21    23    1
    28    22    24   ar
    29    23    25    1
    30    23    26    2
    31     1    28    1
    32     1    29    1
    33     1    30    1
    34     2    31    1
    35     3    32    1
    36     4    33    1
    37     5    34    1
    38     6    35    1
    39     7    36    1
    40     8    37    1
    41     9    38    1
    42    10    39    1
    43    11    40    1
    44    12    41    1
    45    13    42    1
@<TRIPOS>SUBSTRUCTURE
     1 <0>         1 TEMP              0 ****  ****    0 ROOT

