
##########                                Name:        626_500_2OWB
##########                    Molecular_Weight:             449.557
##########                DOCK_Rotatable_Bonds:                   7
##########                       Formal_Charge:              1.0001
##########                     HBond_Acceptors:                   9
##########                        HBond_Donors:                   3
##########                         Heavy_Atoms:                  32
##########                            HA_RMSDs:               0.342
##########                            HA_RMSDh:               0.342
##########                            HA_RMSDm:               0.342
##########                          Grid_Score:         -110.084549
##########                     Grid_vdw_energy:          -64.980263
##########                      Grid_es_energy:          -45.104282
##########           Internal_energy_repulsive:           17.610739

@<TRIPOS>MOLECULE
626_500_2OWB
 57 61 1 0 0
SMALL
USER_CHARGES


@<TRIPOS>ATOM
      1 C1          1.9583   16.8006   70.5698 C.3     1  <0>        -0.0430
      2 C2         -0.1199   25.6388   61.0151 C.2     1  <0>        -0.0545
      3 C3         -0.2522   26.7008   61.9986 C.2     1  <0>        -0.0511
      4 C4          0.2543   23.0786   70.8328 C.ar    1  <0>        -0.0479
      5 C5         -1.2590   22.2609   69.1503 C.ar    1  <0>        -0.0479
      6 C6          0.0902   21.8903   71.5602 C.ar    1  <0>        -0.0399
      7 C7         -1.4239   21.0705   69.8796 C.ar    1  <0>        -0.0399
      8 C8         -1.3049   24.9223   60.8940 C.2     1  <0>        -0.0241
      9 C9         -0.5194   26.9580   66.0905 C.2     1  <0>         0.0164
     10 C10         0.7960   29.0876   65.7869 C.2     1  <0>         0.0272
     11 C11        -0.3112   17.7513   70.4494 C.3     1  <0>        -0.0160
     12 C12         1.3087   18.6271   72.0719 C.3     1  <0>        -0.0160
     13 C13        -1.4234   18.4172   71.2648 C.3     1  <0>         0.0525
     14 C14         0.1493   19.2585   72.8465 C.3     1  <0>         0.0525
     15 C15        -2.0436   27.6681   63.6158 C.3     1  <0>         0.0561
     16 C16        -0.4099   23.2979   69.6067 C.ar    1  <0>         0.0372
     17 C17        -0.7526   20.8504   71.1095 C.ar    1  <0>         0.0301
     18 C18        -1.5346   26.7132   62.5607 C.2     1  <0>        -0.0014
     19 C19         0.4816   27.1840   67.1754 C.2     1  <0>         0.0547
     20 C20         1.1639   28.3123   66.9931 C.2     1  <0>         0.0744
     21 C21         1.0094   26.5973   68.4148 C.2     1  <0>         0.1535
     22 C22        -0.9011   28.5202   64.1528 C.2     1  <0>         0.2281
     23 C23        -0.2439   24.5521   68.8026 C.2     1  <0>         0.2494
     24 N1          2.0371   28.3951   68.0455 N.pl3   1  <0>        -0.2341
     25 N2          1.9353   27.4003   68.8485 N.2     1  <0>        -0.1660
     26 N3          0.7280   25.4277   69.1332 N.am    1  <0>        -0.2646
     27 N4         -0.2626   28.1837   65.2773 N.am    1  <0>        -0.2510
     28 N5          0.8493   17.4395   71.3170 N.4     1  <0>         0.2353
     29 N6         -0.9012   19.6445   71.8920 N.pl3   1  <0>        -0.3198
     30 O1         -0.5856   29.5329   63.5330 O.2     1  <0>        -0.2746
     31 O2         -1.0007   24.7067   67.8467 O.2     1  <0>        -0.2698
     32 S1         -2.5692   25.4885   61.9301 S.3     1  <0>        -0.1011
     33 H1          2.7911   16.5908   71.2572 H       1  <0>         0.0778
     34 H2          1.6051   15.8592   70.1237 H       1  <0>         0.0778
     35 H3          2.3017   17.4777   69.7738 H       1  <0>         0.0778
     36 H4          0.7793   25.4337   60.4531 H       1  <0>         0.0623
     37 H5          0.5361   27.3906   62.2617 H       1  <0>         0.0626
     38 H6          0.9065   23.8466   71.2216 H       1  <0>         0.0626
     39 H7         -1.7926   22.3875   68.2199 H       1  <0>         0.0626
     40 H8          0.6236   21.7671   72.4912 H       1  <0>         0.0636
     41 H9         -2.0788   20.3035   69.4934 H       1  <0>         0.0636
     42 H10        -1.4250   24.0899   60.2164 H       1  <0>         0.0693
     43 H11        -1.2196   26.1499   65.9393 H       1  <0>         0.0796
     44 H12         1.1790   30.0201   65.3993 H       1  <0>         0.0807
     45 H13        -0.6946   16.8186   70.0099 H       1  <0>         0.0830
     46 H14         0.0092   18.4352   69.6497 H       1  <0>         0.0830
     47 H15         1.7138   19.3668   71.3658 H       1  <0>         0.0830
     48 H16         2.0906   18.3207   72.7823 H       1  <0>         0.0830
     49 H17        -2.2630   18.6722   70.6014 H       1  <0>         0.0516
     50 H18        -1.7713   17.7249   72.0457 H       1  <0>         0.0516
     51 H19        -0.2535   18.5330   73.5686 H       1  <0>         0.0516
     52 H20         0.5048   20.1481   73.3872 H       1  <0>         0.0516
     53 H21        -2.8066   28.3245   63.1717 H       1  <0>         0.0412
     54 H22        -2.4847   27.0920   64.4425 H       1  <0>         0.0412
     55 H23         2.6825   29.1480   68.1734 H       1  <0>         0.1745
     56 H24         1.2821   25.2294   69.9416 H       1  <0>         0.1566
     57 H25         0.5311   16.7679   71.9862 H       1  <0>         0.2032
@<TRIPOS>BOND
     1     1    28    1
     2     2     3    1
     3     2     8    2
     4     3    18    2
     5     4     6   ar
     6     4    16   ar
     7     5     7   ar
     8     5    16   ar
     9     6    17   ar
    10     7    17   ar
    11     8    32    1
    12     9    19    2
    13     9    27    1
    14    10    20    2
    15    10    27    1
    16    11    13    1
    17    11    28    1
    18    12    14    1
    19    12    28    1
    20    13    29    1
    21    14    29    1
    22    15    18    1
    23    15    22    1
    24    16    23    1
    25    17    29    1
    26    18    32    1
    27    19    20    1
    28    19    21    1
    29    20    24    1
    30    21    25    2
    31    21    26    1
    32    22    27   am
    33    22    30    2
    34    23    26   am
    35    23    31    2
    36    24    25    1
    37     1    33    1
    38     1    34    1
    39     1    35    1
    40     2    36    1
    41     3    37    1
    42     4    38    1
    43     5    39    1
    44     6    40    1
    45     7    41    1
    46     8    42    1
    47     9    43    1
    48    10    44    1
    49    11    45    1
    50    11    46    1
    51    12    47    1
    52    12    48    1
    53    13    49    1
    54    13    50    1
    55    14    51    1
    56    14    52    1
    57    15    53    1
    58    15    54    1
    59    24    55    1
    60    26    56    1
    61    28    57    1
@<TRIPOS>SUBSTRUCTURE
     1 <0>         1 TEMP              0 ****  ****    0 ROOT

