
##########                                Name:        626_500_2OWB
##########                    Molecular_Weight:             449.557
##########                DOCK_Rotatable_Bonds:                   7
##########                       Formal_Charge:              1.0001
##########                     HBond_Acceptors:                   9
##########                        HBond_Donors:                   3
##########                         Heavy_Atoms:                  32
##########                            HA_RMSDs:               0.336
##########                            HA_RMSDh:               0.336
##########                            HA_RMSDm:               0.336
##########                          Grid_Score:         -111.429619
##########                     Grid_vdw_energy:          -65.522545
##########                      Grid_es_energy:          -45.907074
##########           Internal_energy_repulsive:           17.115269

@<TRIPOS>MOLECULE
626_500_2OWB
 57 61 1 0 0
SMALL
USER_CHARGES


@<TRIPOS>ATOM
      1 C1          2.1675   17.0088   70.6255 C.3     1  <0>        -0.0430
      2 C2         -0.1782   25.7013   60.8995 C.2     1  <0>        -0.0545
      3 C3         -0.3099   26.8256   61.8113 C.2     1  <0>        -0.0511
      4 C4          0.3560   23.1712   70.7450 C.ar    1  <0>        -0.0479
      5 C5         -1.2575   22.4142   69.1285 C.ar    1  <0>        -0.0479
      6 C6          0.1953   21.9787   71.4663 C.ar    1  <0>        -0.0399
      7 C7         -1.4190   21.2196   69.8518 C.ar    1  <0>        -0.0399
      8 C8         -1.2937   24.8746   60.9645 C.2     1  <0>        -0.0241
      9 C9         -0.4431   27.0368   65.9882 C.2     1  <0>         0.0164
     10 C10         0.8868   29.1533   65.6579 C.2     1  <0>         0.0272
     11 C11        -0.1245   17.8848   70.4055 C.3     1  <0>        -0.0160
     12 C12         1.3932   18.8110   72.0975 C.3     1  <0>        -0.0160
     13 C13        -1.2926   18.5128   71.1714 C.3     1  <0>         0.0525
     14 C14         0.1809   19.4031   72.8204 C.3     1  <0>         0.0525
     15 C15        -2.0085   27.7611   63.5434 C.3     1  <0>         0.0561
     16 C16        -0.3600   23.4229   69.5549 C.ar    1  <0>         0.0372
     17 C17        -0.6957   20.9669   71.0453 C.ar    1  <0>         0.0301
     18 C18        -1.5217   26.7706   62.5108 C.2     1  <0>        -0.0014
     19 C19         0.5810   27.2532   67.0531 C.2     1  <0>         0.0547
     20 C20         1.2706   28.3747   66.8571 C.2     1  <0>         0.0744
     21 C21         1.1272   26.6617   68.2823 C.2     1  <0>         0.1535
     22 C22        -0.8474   28.6020   64.0576 C.2     1  <0>         0.2281
     23 C23        -0.1992   24.6821   68.7577 C.2     1  <0>         0.2494
     24 N1          2.1650   28.4492   67.8921 N.pl3   1  <0>        -0.2341
     25 N2          2.0692   27.4557   68.6974 N.2     1  <0>        -0.1660
     26 N3          0.8484   25.4951   69.0066 N.am    1  <0>        -0.2646
     27 N4         -0.1903   28.2597   65.1695 N.am    1  <0>        -0.2510
     28 N5          1.0065   17.6100   71.3233 N.4     1  <0>         0.2353
     29 N6         -0.8389   19.7557   71.8207 N.pl3   1  <0>        -0.3198
     30 O1         -0.5341   29.6114   63.4312 O.2     1  <0>        -0.2746
     31 O2         -1.0333   24.8984   67.8813 O.2     1  <0>        -0.2698
     32 S1         -2.4920   25.4104   62.0912 S.3     1  <0>        -0.1011
     33 H1          2.9759   16.8255   71.3487 H       1  <0>         0.0778
     34 H2          1.8653   16.0569   70.1645 H       1  <0>         0.0778
     35 H3          2.5231   17.6977   69.8453 H       1  <0>         0.0778
     36 H4          0.6731   25.5310   60.2571 H       1  <0>         0.0623
     37 H5          0.4305   27.6024   61.9334 H       1  <0>         0.0626
     38 H6          1.0465   23.9170   71.1104 H       1  <0>         0.0626
     39 H7         -1.8315   22.5662   68.2264 H       1  <0>         0.0626
     40 H8          0.7692   21.8301   72.3691 H       1  <0>         0.0636
     41 H9         -2.1120   20.4749   69.4892 H       1  <0>         0.0636
     42 H10        -1.4022   23.9812   60.3673 H       1  <0>         0.0693
     43 H11        -1.1541   26.2355   65.8511 H       1  <0>         0.0796
     44 H12         1.2713   30.0818   65.2625 H       1  <0>         0.0807
     45 H13        -0.4574   16.9406   69.9498 H       1  <0>         0.0830
     46 H14         0.2081   18.5799   69.6206 H       1  <0>         0.0830
     47 H15         1.8044   19.5645   71.4097 H       1  <0>         0.0830
     48 H16         2.1528   18.5294   72.8415 H       1  <0>         0.0830
     49 H17        -2.1102   18.7411   70.4718 H       1  <0>         0.0516
     50 H18        -1.6515   17.8085   71.9363 H       1  <0>         0.0516
     51 H19        -0.2292   18.6639   73.5242 H       1  <0>         0.0516
     52 H20         0.4830   20.3031   73.3760 H       1  <0>         0.0516
     53 H21        -2.7587   28.4222   63.0850 H       1  <0>         0.0412
     54 H22        -2.4594   27.2143   64.3847 H       1  <0>         0.0412
     55 H23         2.8202   29.1958   68.0070 H       1  <0>         0.1745
     56 H24         1.4645   25.2497   69.7551 H       1  <0>         0.1566
     57 H25         0.6815   16.9275   71.9779 H       1  <0>         0.2032
@<TRIPOS>BOND
     1     1    28    1
     2     2     3    1
     3     2     8    2
     4     3    18    2
     5     4     6   ar
     6     4    16   ar
     7     5     7   ar
     8     5    16   ar
     9     6    17   ar
    10     7    17   ar
    11     8    32    1
    12     9    19    2
    13     9    27    1
    14    10    20    2
    15    10    27    1
    16    11    13    1
    17    11    28    1
    18    12    14    1
    19    12    28    1
    20    13    29    1
    21    14    29    1
    22    15    18    1
    23    15    22    1
    24    16    23    1
    25    17    29    1
    26    18    32    1
    27    19    20    1
    28    19    21    1
    29    20    24    1
    30    21    25    2
    31    21    26    1
    32    22    27   am
    33    22    30    2
    34    23    26   am
    35    23    31    2
    36    24    25    1
    37     1    33    1
    38     1    34    1
    39     1    35    1
    40     2    36    1
    41     3    37    1
    42     4    38    1
    43     5    39    1
    44     6    40    1
    45     7    41    1
    46     8    42    1
    47     9    43    1
    48    10    44    1
    49    11    45    1
    50    11    46    1
    51    12    47    1
    52    12    48    1
    53    13    49    1
    54    13    50    1
    55    14    51    1
    56    14    52    1
    57    15    53    1
    58    15    54    1
    59    24    55    1
    60    26    56    1
    61    28    57    1
@<TRIPOS>SUBSTRUCTURE
     1 <0>         1 TEMP              0 ****  ****    0 ROOT

