
##########                                Name:        626_500_2OWB
##########                    Molecular_Weight:             449.557
##########                DOCK_Rotatable_Bonds:                   7
##########                       Formal_Charge:              1.0001
##########                     HBond_Acceptors:                   9
##########                        HBond_Donors:                   3
##########                         Heavy_Atoms:                  32
##########                            HA_RMSDs:               0.578
##########                            HA_RMSDh:               0.578
##########                            HA_RMSDm:               0.578
##########                          Grid_Score:         -109.653122
##########                     Grid_vdw_energy:          -63.467297
##########                      Grid_es_energy:          -46.185822
##########           Internal_energy_repulsive:           16.844904

@<TRIPOS>MOLECULE
626_500_2OWB
 57 61 1 0 0
SMALL
USER_CHARGES


@<TRIPOS>ATOM
      1 C1          2.0341   17.3520   70.4961 C.3     1  <0>        -0.0430
      2 C2         -0.1250   25.7544   60.7412 C.2     1  <0>        -0.0545
      3 C3         -0.4345   26.9335   61.5328 C.2     1  <0>        -0.0511
      4 C4          0.3430   23.4708   70.4089 C.ar    1  <0>        -0.0479
      5 C5         -1.5287   22.7680   69.0702 C.ar    1  <0>        -0.0479
      6 C6          0.2218   22.3117   71.1899 C.ar    1  <0>        -0.0399
      7 C7         -1.6506   21.6069   69.8533 C.ar    1  <0>        -0.0399
      8 C8         -1.1151   24.7886   60.8789 C.2     1  <0>        -0.0241
      9 C9         -0.8337   27.2888   65.7111 C.2     1  <0>         0.0164
     10 C10         0.3298   29.5010   65.3796 C.2     1  <0>         0.0272
     11 C11        -0.2633   18.2349   70.3916 C.3     1  <0>        -0.0160
     12 C12         1.3672   19.2187   71.9399 C.3     1  <0>        -0.0160
     13 C13        -1.3753   18.9024   71.2061 C.3     1  <0>         0.0525
     14 C14         0.2082   19.8488   72.7160 C.3     1  <0>         0.0525
     15 C15        -2.2883   27.7861   63.1443 C.3     1  <0>         0.0561
     16 C16        -0.5231   23.7316   69.3253 C.ar    1  <0>         0.0372
     17 C17        -0.7767   21.3448   70.9393 C.ar    1  <0>         0.0301
     18 C18        -1.6432   26.7771   62.2224 C.2     1  <0>        -0.0014
     19 C19         0.0948   27.6318   66.8292 C.2     1  <0>         0.0547
     20 C20         0.6977   28.8019   66.6316 C.2     1  <0>         0.0744
     21 C21         0.6061   27.1342   68.1137 C.2     1  <0>         0.1535
     22 C22        -1.2402   28.7435   63.6963 C.2     1  <0>         0.2281
     23 C23        -0.4091   24.9551   68.4667 C.2     1  <0>         0.2494
     24 N1          1.5112   28.9911   67.7175 N.pl3   1  <0>        -0.2341
     25 N2          1.4471   28.0221   68.5550 N.2     1  <0>        -0.1660
     26 N3          0.3802   25.9739   68.8660 N.am    1  <0>        -0.2646
     27 N4         -0.6321   28.4996   64.8608 N.am    1  <0>        -0.2510
     28 N5          0.9247   17.9897   71.2433 N.4     1  <0>         0.2353
     29 N6         -0.8739   20.1676   71.7720 N.pl3   1  <0>        -0.3198
     30 O1         -0.9731   29.7538   63.0504 O.2     1  <0>        -0.2746
     31 O2         -1.0327   24.9540   67.4077 O.2     1  <0>        -0.2698
     32 S1         -2.4033   25.2584   61.9337 S.3     1  <0>        -0.1011
     33 H1          2.8878   17.1926   71.1713 H       1  <0>         0.0778
     34 H2          1.6977   16.3842   70.0958 H       1  <0>         0.0778
     35 H3          2.3405   18.0057   69.6662 H       1  <0>         0.0778
     36 H4          0.7569   25.6435   60.1277 H       1  <0>         0.0623
     37 H5          0.1868   27.8155   61.5825 H       1  <0>         0.0626
     38 H6          1.1203   24.1831   70.6432 H       1  <0>         0.0626
     39 H7         -2.2183   22.9288   68.2548 H       1  <0>         0.0626
     40 H8          0.9116   22.1543   72.0059 H       1  <0>         0.0636
     41 H9         -2.4299   20.8960   69.6220 H       1  <0>         0.0636
     42 H10        -1.0832   23.8341   60.3745 H       1  <0>         0.0693
     43 H11        -1.4628   26.4238   65.5620 H       1  <0>         0.0796
     44 H12         0.6592   30.4452   64.9718 H       1  <0>         0.0807
     45 H13        -0.6301   17.2753   69.9983 H       1  <0>         0.0830
     46 H14         0.0197   18.8947   69.5583 H       1  <0>         0.0830
     47 H15         1.7355   19.9403   71.1958 H       1  <0>         0.0830
     48 H16         2.1732   18.9624   72.6433 H       1  <0>         0.0830
     49 H17        -2.2363   19.1077   70.5531 H       1  <0>         0.0516
     50 H18        -1.6859   18.2327   72.0216 H       1  <0>         0.0516
     51 H19        -0.1578   19.1422   73.4754 H       1  <0>         0.0516
     52 H20         0.5506   20.7687   73.2127 H       1  <0>         0.0516
     53 H21        -3.0415   28.3589   62.5832 H       1  <0>         0.0412
     54 H22        -2.7702   27.2567   63.9794 H       1  <0>         0.0412
     55 H23         2.0911   29.7960   67.8431 H       1  <0>         0.1745
     56 H24         0.8323   25.8960   69.7545 H       1  <0>         0.1566
     57 H25         0.6405   17.3371   71.9457 H       1  <0>         0.2032
@<TRIPOS>BOND
     1     1    28    1
     2     2     3    1
     3     2     8    2
     4     3    18    2
     5     4     6   ar
     6     4    16   ar
     7     5     7   ar
     8     5    16   ar
     9     6    17   ar
    10     7    17   ar
    11     8    32    1
    12     9    19    2
    13     9    27    1
    14    10    20    2
    15    10    27    1
    16    11    13    1
    17    11    28    1
    18    12    14    1
    19    12    28    1
    20    13    29    1
    21    14    29    1
    22    15    18    1
    23    15    22    1
    24    16    23    1
    25    17    29    1
    26    18    32    1
    27    19    20    1
    28    19    21    1
    29    20    24    1
    30    21    25    2
    31    21    26    1
    32    22    27   am
    33    22    30    2
    34    23    26   am
    35    23    31    2
    36    24    25    1
    37     1    33    1
    38     1    34    1
    39     1    35    1
    40     2    36    1
    41     3    37    1
    42     4    38    1
    43     5    39    1
    44     6    40    1
    45     7    41    1
    46     8    42    1
    47     9    43    1
    48    10    44    1
    49    11    45    1
    50    11    46    1
    51    12    47    1
    52    12    48    1
    53    13    49    1
    54    13    50    1
    55    14    51    1
    56    14    52    1
    57    15    53    1
    58    15    54    1
    59    24    55    1
    60    26    56    1
    61    28    57    1
@<TRIPOS>SUBSTRUCTURE
     1 <0>         1 TEMP              0 ****  ****    0 ROOT

