
##########                                Name:        626_500_2OWB
##########                    Molecular_Weight:             449.557
##########                DOCK_Rotatable_Bonds:                   7
##########                       Formal_Charge:              1.0001
##########                     HBond_Acceptors:                   9
##########                        HBond_Donors:                   3
##########                         Heavy_Atoms:                  32
##########                            HA_RMSDs:               0.269
##########                            HA_RMSDh:               0.269
##########                            HA_RMSDm:               0.269
##########                          Grid_Score:         -110.105118
##########                     Grid_vdw_energy:          -65.292221
##########                      Grid_es_energy:          -44.812901
##########           Internal_energy_repulsive:           16.873220

@<TRIPOS>MOLECULE
626_500_2OWB
 57 61 1 0 0
SMALL
USER_CHARGES


@<TRIPOS>ATOM
      1 C1          1.5923   16.8645   70.3528 C.3     1  <0>        -0.0430
      2 C2         -0.3652   25.7732   60.9239 C.2     1  <0>        -0.0545
      3 C3         -0.4798   26.9076   61.8254 C.2     1  <0>        -0.0511
      4 C4          0.2841   23.3139   70.7828 C.ar    1  <0>        -0.0479
      5 C5         -1.2639   22.4812   69.1398 C.ar    1  <0>        -0.0479
      6 C6          0.1160   22.1430   71.5371 C.ar    1  <0>        -0.0399
      7 C7         -1.4329   21.3083   69.8961 C.ar    1  <0>        -0.0399
      8 C8         -1.4778   24.9456   61.0216 C.2     1  <0>        -0.0241
      9 C9         -0.5656   27.1545   66.0243 C.2     1  <0>         0.0164
     10 C10         0.7824   29.2529   65.6540 C.2     1  <0>         0.0272
     11 C11        -0.6024   17.9783   70.4583 C.3     1  <0>        -0.0160
     12 C12         1.2386   18.7418   71.8906 C.3     1  <0>        -0.0160
     13 C13        -1.5713   18.7284   71.3770 C.3     1  <0>         0.0525
     14 C14         0.2162   19.4606   72.7741 C.3     1  <0>         0.0525
     15 C15        -2.1432   27.8603   63.5820 C.3     1  <0>         0.0561
     16 C16        -0.3953   23.5164   69.5622 C.ar    1  <0>         0.0372
     17 C17        -0.7463   21.1050   71.1204 C.ar    1  <0>         0.0301
     18 C18        -1.6766   26.8588   62.5507 C.2     1  <0>        -0.0014
     19 C19         0.4691   27.3756   67.0781 C.2     1  <0>         0.0547
     20 C20         1.1681   28.4873   66.8609 C.2     1  <0>         0.0744
     21 C21         1.0192   26.7958   68.3111 C.2     1  <0>         0.1535
     22 C22        -0.9698   28.6967   64.0752 C.2     1  <0>         0.2281
     23 C23        -0.2255   24.7515   68.7299 C.2     1  <0>         0.2494
     24 N1          2.0714   28.5673   67.8877 N.pl3   1  <0>        -0.2341
     25 N2          1.9723   27.5862   68.7076 N.2     1  <0>        -0.1660
     26 N3          0.7347   25.6423   69.0538 N.am    1  <0>        -0.2646
     27 N4         -0.3073   28.3633   65.1866 N.am    1  <0>        -0.2510
     28 N5          0.6175   17.5869   71.2036 N.4     1  <0>         0.2353
     29 N6         -0.8985   19.9175   71.9299 N.pl3   1  <0>        -0.3198
     30 O1         -0.6517   29.6941   63.4323 O.2     1  <0>        -0.2746
     31 O2         -0.9681   24.8767   67.7587 O.2     1  <0>        -0.2698
     32 S1         -2.6531   25.4925   62.1671 S.3     1  <0>        -0.1011
     33 H1          2.4757   16.5979   70.9517 H       1  <0>         0.0778
     34 H2          1.1269   15.9491   69.9585 H       1  <0>         0.0778
     35 H3          1.8980   17.5102   69.5163 H       1  <0>         0.0778
     36 H4          0.4727   25.5968   60.2657 H       1  <0>         0.0623
     37 H5          0.2617   27.6868   61.9230 H       1  <0>         0.0626
     38 H6          0.9516   24.0814   71.1461 H       1  <0>         0.0626
     39 H7         -1.8096   22.5954   68.2149 H       1  <0>         0.0626
     40 H8          0.6615   22.0323   72.4626 H       1  <0>         0.0636
     41 H9         -2.1030   20.5419   69.5355 H       1  <0>         0.0636
     42 H10        -1.5973   24.0453   60.4371 H       1  <0>         0.0693
     43 H11        -1.2855   26.3585   65.9040 H       1  <0>         0.0796
     44 H12         1.1729   30.1720   65.2426 H       1  <0>         0.0807
     45 H13        -1.0965   17.0739   70.0737 H       1  <0>         0.0830
     46 H14        -0.3195   18.6326   69.6205 H       1  <0>         0.0830
     47 H15         1.6195   19.4459   71.1363 H       1  <0>         0.0830
     48 H16         2.0669   18.3827   72.5191 H       1  <0>         0.0830
     49 H17        -2.4555   19.0407   70.8020 H       1  <0>         0.0516
     50 H18        -1.8841   18.0677   72.1990 H       1  <0>         0.0516
     51 H19        -0.1597   18.7706   73.5439 H       1  <0>         0.0516
     52 H20         0.6901   20.3246   73.2628 H       1  <0>         0.0516
     53 H21        -2.8946   28.5233   63.1281 H       1  <0>         0.0412
     54 H22        -2.5873   27.3229   64.4329 H       1  <0>         0.0412
     55 H23         2.7348   29.3090   67.9871 H       1  <0>         0.1745
     56 H24         1.2774   25.4683   69.8755 H       1  <0>         0.1566
     57 H25         0.3239   16.9442   71.9111 H       1  <0>         0.2032
@<TRIPOS>BOND
     1     1    28    1
     2     2     3    1
     3     2     8    2
     4     3    18    2
     5     4     6   ar
     6     4    16   ar
     7     5     7   ar
     8     5    16   ar
     9     6    17   ar
    10     7    17   ar
    11     8    32    1
    12     9    19    2
    13     9    27    1
    14    10    20    2
    15    10    27    1
    16    11    13    1
    17    11    28    1
    18    12    14    1
    19    12    28    1
    20    13    29    1
    21    14    29    1
    22    15    18    1
    23    15    22    1
    24    16    23    1
    25    17    29    1
    26    18    32    1
    27    19    20    1
    28    19    21    1
    29    20    24    1
    30    21    25    2
    31    21    26    1
    32    22    27   am
    33    22    30    2
    34    23    26   am
    35    23    31    2
    36    24    25    1
    37     1    33    1
    38     1    34    1
    39     1    35    1
    40     2    36    1
    41     3    37    1
    42     4    38    1
    43     5    39    1
    44     6    40    1
    45     7    41    1
    46     8    42    1
    47     9    43    1
    48    10    44    1
    49    11    45    1
    50    11    46    1
    51    12    47    1
    52    12    48    1
    53    13    49    1
    54    13    50    1
    55    14    51    1
    56    14    52    1
    57    15    53    1
    58    15    54    1
    59    24    55    1
    60    26    56    1
    61    28    57    1
@<TRIPOS>SUBSTRUCTURE
     1 <0>         1 TEMP              0 ****  ****    0 ROOT

