
##########                                Name:        626_500_2OWB
##########                    Molecular_Weight:             449.557
##########                DOCK_Rotatable_Bonds:                   7
##########                       Formal_Charge:              1.0001
##########                     HBond_Acceptors:                   9
##########                        HBond_Donors:                   3
##########                         Heavy_Atoms:                  32
##########                            HA_RMSDs:               0.592
##########                            HA_RMSDh:               0.592
##########                            HA_RMSDm:               0.592
##########                          Grid_Score:         -105.584351
##########                     Grid_vdw_energy:          -59.438026
##########                      Grid_es_energy:          -46.146324
##########           Internal_energy_repulsive:           16.056831

@<TRIPOS>MOLECULE
626_500_2OWB
 57 61 1 0 0
SMALL
USER_CHARGES


@<TRIPOS>ATOM
      1 C1          1.5497   17.3550   70.2864 C.3     1  <0>        -0.0430
      2 C2          0.2505   25.7138   61.3633 C.2     1  <0>        -0.0545
      3 C3         -0.0281   26.8521   62.2233 C.2     1  <0>        -0.0511
      4 C4          0.2323   23.8373   70.6164 C.ar    1  <0>        -0.0479
      5 C5         -1.2807   22.9332   68.9785 C.ar    1  <0>        -0.0479
      6 C6          0.0763   22.6838   71.3996 C.ar    1  <0>        -0.0399
      7 C7         -1.4375   21.7778   69.7637 C.ar    1  <0>        -0.0399
      8 C8         -0.9279   25.1231   60.9223 C.2     1  <0>        -0.0241
      9 C9         -0.6994   27.6044   65.8038 C.2     1  <0>         0.0164
     10 C10         0.4960   29.8048   65.5096 C.2     1  <0>         0.0272
     11 C11        -0.6396   18.4782   70.4074 C.3     1  <0>        -0.0160
     12 C12         1.2302   19.2678   71.7874 C.3     1  <0>        -0.0160
     13 C13        -1.5889   19.2520   71.3268 C.3     1  <0>         0.0525
     14 C14         0.2265   20.0100   72.6732 C.3     1  <0>         0.0525
     15 C15        -2.0767   28.1219   63.1986 C.3     1  <0>         0.0561
     16 C16        -0.4359   23.9949   69.3831 C.ar    1  <0>         0.0372
     17 C17        -0.7621   21.6195   71.0008 C.ar    1  <0>         0.0301
     18 C18        -1.4065   27.0438   62.3783 C.2     1  <0>        -0.0014
     19 C19         0.2011   27.9355   66.9480 C.2     1  <0>         0.0547
     20 C20         0.8215   29.0995   66.7698 C.2     1  <0>         0.0744
     21 C21         0.6712   27.4301   68.2452 C.2     1  <0>         0.1535
     22 C22        -1.0344   29.0671   63.7816 C.2     1  <0>         0.2281
     23 C23        -0.2785   25.2106   68.5202 C.2     1  <0>         0.2494
     24 N1          1.6064   29.2781   67.8783 N.pl3   1  <0>        -0.2341
     25 N2          1.5088   28.3082   68.7116 N.2     1  <0>        -0.1660
     26 N3          0.4122   26.2709   68.9884 N.am    1  <0>        -0.2646
     27 N4         -0.4615   28.8146   64.9621 N.am    1  <0>        -0.2510
     28 N5          0.5930   18.0998   71.1386 N.4     1  <0>         0.2353
     29 N6         -0.9024   20.4512   71.8398 N.pl3   1  <0>        -0.3198
     30 O1         -0.7388   30.0757   63.1455 O.2     1  <0>        -0.2746
     31 O2         -0.7743   25.1656   67.3966 O.2     1  <0>        -0.2698
     32 S1         -2.3577   25.8962   61.5146 S.3     1  <0>        -0.1011
     33 H1          2.4433   17.0992   70.8747 H       1  <0>         0.0778
     34 H2          1.0744   16.4324   69.9218 H       1  <0>         0.0778
     35 H3          1.8415   17.9805   69.4300 H       1  <0>         0.0778
     36 H4          1.2412   25.3726   61.1017 H       1  <0>         0.0623
     37 H5          0.7294   27.4696   62.6829 H       1  <0>         0.0626
     38 H6          0.8815   24.6262   70.9667 H       1  <0>         0.0626
     39 H7         -1.8172   23.0129   68.0446 H       1  <0>         0.0626
     40 H8          0.6126   22.6075   72.3340 H       1  <0>         0.0636
     41 H9         -2.0893   20.9900   69.4159 H       1  <0>         0.0636
     42 H10        -0.9490   24.2619   60.2708 H       1  <0>         0.0693
     43 H11        -1.3332   26.7464   65.6354 H       1  <0>         0.0796
     44 H12         0.8465   30.7463   65.1132 H       1  <0>         0.0807
     45 H13        -1.1433   17.5668   70.0528 H       1  <0>         0.0830
     46 H14        -0.3705   19.1123   69.5499 H       1  <0>         0.0830
     47 H15         1.5989   19.9535   71.0103 H       1  <0>         0.0830
     48 H16         2.0690   18.9204   72.4084 H       1  <0>         0.0830
     49 H17        -2.4828   19.5541   70.7613 H       1  <0>         0.0516
     50 H18        -1.8881   18.6112   72.1693 H       1  <0>         0.0516
     51 H19        -0.1369   19.3388   73.4654 H       1  <0>         0.0516
     52 H20         0.7120   20.8833   73.1332 H       1  <0>         0.0516
     53 H21        -2.7624   28.6924   62.5548 H       1  <0>         0.0412
     54 H22        -2.6401   27.6541   64.0193 H       1  <0>         0.0412
     55 H23         2.1910   30.0766   68.0218 H       1  <0>         0.1745
     56 H24         0.7612   26.2265   69.9244 H       1  <0>         0.1566
     57 H25         0.3108   17.4742   71.8659 H       1  <0>         0.2032
@<TRIPOS>BOND
     1     1    28    1
     2     2     3    1
     3     2     8    2
     4     3    18    2
     5     4     6   ar
     6     4    16   ar
     7     5     7   ar
     8     5    16   ar
     9     6    17   ar
    10     7    17   ar
    11     8    32    1
    12     9    19    2
    13     9    27    1
    14    10    20    2
    15    10    27    1
    16    11    13    1
    17    11    28    1
    18    12    14    1
    19    12    28    1
    20    13    29    1
    21    14    29    1
    22    15    18    1
    23    15    22    1
    24    16    23    1
    25    17    29    1
    26    18    32    1
    27    19    20    1
    28    19    21    1
    29    20    24    1
    30    21    25    2
    31    21    26    1
    32    22    27   am
    33    22    30    2
    34    23    26   am
    35    23    31    2
    36    24    25    1
    37     1    33    1
    38     1    34    1
    39     1    35    1
    40     2    36    1
    41     3    37    1
    42     4    38    1
    43     5    39    1
    44     6    40    1
    45     7    41    1
    46     8    42    1
    47     9    43    1
    48    10    44    1
    49    11    45    1
    50    11    46    1
    51    12    47    1
    52    12    48    1
    53    13    49    1
    54    13    50    1
    55    14    51    1
    56    14    52    1
    57    15    53    1
    58    15    54    1
    59    24    55    1
    60    26    56    1
    61    28    57    1
@<TRIPOS>SUBSTRUCTURE
     1 <0>         1 TEMP              0 ****  ****    0 ROOT

