
##########                                Name:        626_500_2OWB
##########                    Molecular_Weight:             449.557
##########                DOCK_Rotatable_Bonds:                   7
##########                       Formal_Charge:              1.0001
##########                     HBond_Acceptors:                   9
##########                        HBond_Donors:                   3
##########                         Heavy_Atoms:                  32
##########                            HA_RMSDs:               0.278
##########                            HA_RMSDh:               0.278
##########                            HA_RMSDm:               0.278
##########                          Grid_Score:         -109.114334
##########                     Grid_vdw_energy:          -64.756584
##########                      Grid_es_energy:          -44.357750
##########           Internal_energy_repulsive:           17.501009

@<TRIPOS>MOLECULE
626_500_2OWB
 57 61 1 0 0
SMALL
USER_CHARGES


@<TRIPOS>ATOM
      1 C1          1.6022   16.7525   70.2291 C.3     1  <0>        -0.0430
      2 C2          0.0169   25.7020   61.0012 C.2     1  <0>        -0.0545
      3 C3         -0.1809   26.8191   61.9100 C.2     1  <0>        -0.0511
      4 C4          0.2424   23.1115   70.6977 C.ar    1  <0>        -0.0479
      5 C5         -1.4062   22.3872   69.1018 C.ar    1  <0>        -0.0479
      6 C6          0.0682   21.9215   71.4201 C.ar    1  <0>        -0.0399
      7 C7         -1.5812   21.1952   69.8261 C.ar    1  <0>        -0.0399
      8 C8         -1.1077   24.8859   60.9638 C.2     1  <0>        -0.0241
      9 C9         -0.5532   27.0584   66.0207 C.2     1  <0>         0.0164
     10 C10         0.7422   29.2061   65.7627 C.2     1  <0>         0.0272
     11 C11        -0.6171   17.8206   70.2821 C.3     1  <0>        -0.0160
     12 C12         1.1568   18.5858   71.7959 C.3     1  <0>        -0.0160
     13 C13        -1.6326   18.5298   71.1828 C.3     1  <0>         0.0525
     14 C14         0.0897   19.2636   72.6588 C.3     1  <0>         0.0525
     15 C15        -2.0106   27.7554   63.5024 C.3     1  <0>         0.0561
     16 C16        -0.4841   23.3781   69.5173 C.ar    1  <0>         0.0372
     17 C17        -0.8474   20.9275   71.0099 C.ar    1  <0>         0.0301
     18 C18        -1.4477   26.7697   62.5045 C.2     1  <0>        -0.0014
     19 C19         0.4111   27.2945   67.1362 C.2     1  <0>         0.0547
     20 C20         1.0835   28.4322   66.9777 C.2     1  <0>         0.0744
     21 C21         0.9086   26.7112   68.3897 C.2     1  <0>         0.1535
     22 C22        -0.8965   28.6210   64.0762 C.2     1  <0>         0.2281
     23 C23        -0.3096   24.6348   68.7190 C.2     1  <0>         0.2494
     24 N1          1.9230   28.5236   68.0565 N.pl3   1  <0>        -0.2341
     25 N2          1.8101   27.5252   68.8535 N.2     1  <0>        -0.1660
     26 N3          0.6211   25.5359   69.0963 N.am    1  <0>        -0.2646
     27 N4         -0.2881   28.2898   65.2188 N.am    1  <0>        -0.2510
     28 N5          0.5837   17.4356   71.0611 N.4     1  <0>         0.2353
     29 N6         -1.0037   19.7184   71.7863 N.pl3   1  <0>        -0.3198
     30 O1         -0.5758   29.6396   63.4688 O.2     1  <0>        -0.2746
     31 O2         -1.0201   24.7681   67.7251 O.2     1  <0>        -0.2698
     32 S1         -2.3917   25.4232   61.9910 S.3     1  <0>        -0.1011
     33 H1          2.4692   16.4891   70.8528 H       1  <0>         0.0778
     34 H2          1.1695   15.8377   69.7977 H       1  <0>         0.0778
     35 H3          1.9238   17.4235   69.4191 H       1  <0>         0.0778
     36 H4          0.9176   25.5291   60.4310 H       1  <0>         0.0623
     37 H5          0.5537   27.5872   62.1017 H       1  <0>         0.0626
     38 H6          0.9516   23.8436   71.0547 H       1  <0>         0.0626
     39 H7         -1.9888   22.5511   68.2073 H       1  <0>         0.0626
     40 H8          0.6508   21.7610   72.3153 H       1  <0>         0.0636
     41 H9         -2.2930   20.4642   69.4720 H       1  <0>         0.0636
     42 H10        -1.1738   23.9992   60.3506 H       1  <0>         0.0693
     43 H11        -1.2376   26.2414   65.8462 H       1  <0>         0.0796
     44 H12         1.1244   30.1447   65.3894 H       1  <0>         0.0807
     45 H13        -1.0789   16.9160   69.8596 H       1  <0>         0.0830
     46 H14        -0.3183   18.4998   69.4701 H       1  <0>         0.0830
     47 H15         1.5495   19.3148   71.0719 H       1  <0>         0.0830
     48 H16         1.9696   18.2282   72.4451 H       1  <0>         0.0830
     49 H17        -2.5022   18.8383   70.5840 H       1  <0>         0.0516
     50 H18        -1.9605   17.8440   71.9779 H       1  <0>         0.0516
     51 H19        -0.2989   18.5484   73.3987 H       1  <0>         0.0516
     52 H20         0.5286   20.1249   73.1836 H       1  <0>         0.0516
     53 H21        -2.7463   28.3997   62.9987 H       1  <0>         0.0412
     54 H22        -2.4977   27.2039   64.3201 H       1  <0>         0.0412
     55 H23         2.5541   29.2847   68.2059 H       1  <0>         0.1745
     56 H24         1.1380   25.3535   69.9326 H       1  <0>         0.1566
     57 H25         0.2786   16.7707   71.7429 H       1  <0>         0.2032
@<TRIPOS>BOND
     1     1    28    1
     2     2     3    1
     3     2     8    2
     4     3    18    2
     5     4     6   ar
     6     4    16   ar
     7     5     7   ar
     8     5    16   ar
     9     6    17   ar
    10     7    17   ar
    11     8    32    1
    12     9    19    2
    13     9    27    1
    14    10    20    2
    15    10    27    1
    16    11    13    1
    17    11    28    1
    18    12    14    1
    19    12    28    1
    20    13    29    1
    21    14    29    1
    22    15    18    1
    23    15    22    1
    24    16    23    1
    25    17    29    1
    26    18    32    1
    27    19    20    1
    28    19    21    1
    29    20    24    1
    30    21    25    2
    31    21    26    1
    32    22    27   am
    33    22    30    2
    34    23    26   am
    35    23    31    2
    36    24    25    1
    37     1    33    1
    38     1    34    1
    39     1    35    1
    40     2    36    1
    41     3    37    1
    42     4    38    1
    43     5    39    1
    44     6    40    1
    45     7    41    1
    46     8    42    1
    47     9    43    1
    48    10    44    1
    49    11    45    1
    50    11    46    1
    51    12    47    1
    52    12    48    1
    53    13    49    1
    54    13    50    1
    55    14    51    1
    56    14    52    1
    57    15    53    1
    58    15    54    1
    59    24    55    1
    60    26    56    1
    61    28    57    1
@<TRIPOS>SUBSTRUCTURE
     1 <0>         1 TEMP              0 ****  ****    0 ROOT

