
##########                                Name:        626_500_2OWB
##########                    Molecular_Weight:             449.557
##########                DOCK_Rotatable_Bonds:                   7
##########                       Formal_Charge:              1.0001
##########                     HBond_Acceptors:                   9
##########                        HBond_Donors:                   3
##########                         Heavy_Atoms:                  32
##########                            HA_RMSDs:               0.481
##########                            HA_RMSDh:               0.481
##########                            HA_RMSDm:               0.481
##########                          Grid_Score:         -108.741898
##########                     Grid_vdw_energy:          -62.695007
##########                      Grid_es_energy:          -46.046890
##########           Internal_energy_repulsive:           16.536495

@<TRIPOS>MOLECULE
626_500_2OWB
 57 61 1 0 0
SMALL
USER_CHARGES


@<TRIPOS>ATOM
      1 C1          2.1202   17.4119   70.5557 C.3     1  <0>        -0.0430
      2 C2         -0.0015   25.7403   60.9594 C.2     1  <0>        -0.0545
      3 C3         -0.2871   26.9412   61.7269 C.2     1  <0>        -0.0511
      4 C4          0.0819   23.4536   70.5573 C.ar    1  <0>        -0.0479
      5 C5         -1.5441   22.6818   68.9604 C.ar    1  <0>        -0.0479
      6 C6         -0.0525   22.2559   71.2754 C.ar    1  <0>        -0.0399
      7 C7         -1.6791   21.4820   69.6804 C.ar    1  <0>        -0.0399
      8 C8         -1.0469   24.8292   61.0537 C.2     1  <0>        -0.0241
      9 C9         -0.7298   27.2906   65.7874 C.2     1  <0>         0.0164
     10 C10         0.4800   29.4879   65.5314 C.2     1  <0>         0.0272
     11 C11        -0.2000   18.1813   70.2499 C.3     1  <0>        -0.0160
     12 C12         1.2101   19.1768   71.9948 C.3     1  <0>        -0.0160
     13 C13        -1.4231   18.7550   70.9711 C.3     1  <0>         0.0525
     14 C14        -0.0539   19.7125   72.6715 C.3     1  <0>         0.0525
     15 C15        -2.1707   27.9046   63.2382 C.3     1  <0>         0.0561
     16 C16        -0.6543   23.7007   69.3786 C.ar    1  <0>         0.0372
     17 C17        -0.9356   21.2340   70.8624 C.ar    1  <0>         0.0301
     18 C18        -1.5350   26.8548   62.3563 C.2     1  <0>        -0.0014
     19 C19         0.2044   27.5761   66.9169 C.2     1  <0>         0.0547
     20 C20         0.8318   28.7394   66.7592 C.2     1  <0>         0.0744
     21 C21         0.7037   27.0249   68.1842 C.2     1  <0>         0.1535
     22 C22        -1.1035   28.8206   63.8228 C.2     1  <0>         0.2281
     23 C23        -0.5219   24.9655   68.5849 C.2     1  <0>         0.2494
     24 N1          1.6479   28.8748   67.8512 N.pl3   1  <0>        -0.2341
     25 N2          1.5625   27.8796   68.6555 N.2     1  <0>        -0.1660
     26 N3          0.4527   25.8448   68.8967 N.am    1  <0>        -0.2646
     27 N4         -0.5019   28.5249   64.9786 N.am    1  <0>        -0.2510
     28 N5          0.9079   17.9590   71.2091 N.4     1  <0>         0.2353
     29 N6         -1.0513   20.0176   71.6344 N.pl3   1  <0>        -0.3198
     30 O1         -0.8146   29.8464   63.2114 O.2     1  <0>        -0.2746
     31 O2         -1.3082   25.1252   67.6539 O.2     1  <0>        -0.2698
     32 S1         -2.3592   25.3755   62.0397 S.3     1  <0>        -0.1011
     33 H1          2.9090   17.2661   71.3085 H       1  <0>         0.0778
     34 H2          1.8793   16.4470   70.0856 H       1  <0>         0.0778
     35 H3          2.4723   18.1163   69.7878 H       1  <0>         0.0778
     36 H4          0.9026   25.5777   60.3915 H       1  <0>         0.0623
     37 H5          0.3768   27.7898   61.8020 H       1  <0>         0.0626
     38 H6          0.7673   24.2072   70.9162 H       1  <0>         0.0626
     39 H7         -2.1328   22.8299   68.0672 H       1  <0>         0.0626
     40 H8          0.5361   22.1113   72.1693 H       1  <0>         0.0636
     41 H9         -2.3670   20.7295   69.3243 H       1  <0>         0.0636
     42 H10        -1.0406   23.8698   60.5576 H       1  <0>         0.0693
     43 H11        -1.3767   26.4444   65.6089 H       1  <0>         0.0796
     44 H12         0.8296   30.4383   65.1559 H       1  <0>         0.0807
     45 H13        -0.4721   17.2227   69.7840 H       1  <0>         0.0830
     46 H14         0.1289   18.8909   69.4764 H       1  <0>         0.0830
     47 H15         1.6113   19.9483   71.3212 H       1  <0>         0.0830
     48 H16         1.9540   18.9306   72.7668 H       1  <0>         0.0830
     49 H17        -2.2240   18.9453   70.2415 H       1  <0>         0.0516
     50 H18        -1.7772   18.0350   71.7236 H       1  <0>         0.0516
     51 H19        -0.4552   18.9553   73.3612 H       1  <0>         0.0516
     52 H20         0.1858   20.6256   73.2362 H       1  <0>         0.0516
     53 H21        -2.8727   28.5034   62.6393 H       1  <0>         0.0412
     54 H22        -2.7108   27.4091   64.0584 H       1  <0>         0.0412
     55 H23         2.2443   29.6627   68.0042 H       1  <0>         0.1745
     56 H24         1.0323   25.6416   69.6858 H       1  <0>         0.1566
     57 H25         0.5907   17.2624   71.8526 H       1  <0>         0.2032
@<TRIPOS>BOND
     1     1    28    1
     2     2     3    1
     3     2     8    2
     4     3    18    2
     5     4     6   ar
     6     4    16   ar
     7     5     7   ar
     8     5    16   ar
     9     6    17   ar
    10     7    17   ar
    11     8    32    1
    12     9    19    2
    13     9    27    1
    14    10    20    2
    15    10    27    1
    16    11    13    1
    17    11    28    1
    18    12    14    1
    19    12    28    1
    20    13    29    1
    21    14    29    1
    22    15    18    1
    23    15    22    1
    24    16    23    1
    25    17    29    1
    26    18    32    1
    27    19    20    1
    28    19    21    1
    29    20    24    1
    30    21    25    2
    31    21    26    1
    32    22    27   am
    33    22    30    2
    34    23    26   am
    35    23    31    2
    36    24    25    1
    37     1    33    1
    38     1    34    1
    39     1    35    1
    40     2    36    1
    41     3    37    1
    42     4    38    1
    43     5    39    1
    44     6    40    1
    45     7    41    1
    46     8    42    1
    47     9    43    1
    48    10    44    1
    49    11    45    1
    50    11    46    1
    51    12    47    1
    52    12    48    1
    53    13    49    1
    54    13    50    1
    55    14    51    1
    56    14    52    1
    57    15    53    1
    58    15    54    1
    59    24    55    1
    60    26    56    1
    61    28    57    1
@<TRIPOS>SUBSTRUCTURE
     1 <0>         1 TEMP              0 ****  ****    0 ROOT

