
##########                                Name:        626_500_2OWB
##########                    Molecular_Weight:             449.557
##########                DOCK_Rotatable_Bonds:                   7
##########                       Formal_Charge:              1.0001
##########                     HBond_Acceptors:                   9
##########                        HBond_Donors:                   3
##########                         Heavy_Atoms:                  32
##########                            HA_RMSDs:               0.396
##########                            HA_RMSDh:               0.396
##########                            HA_RMSDm:               0.396
##########                          Grid_Score:         -106.921219
##########                     Grid_vdw_energy:          -62.961494
##########                      Grid_es_energy:          -43.959724
##########           Internal_energy_repulsive:           16.207487

@<TRIPOS>MOLECULE
626_500_2OWB
 57 61 1 0 0
SMALL
USER_CHARGES


@<TRIPOS>ATOM
      1 C1          1.5608   16.6023   70.4120 C.3     1  <0>        -0.0430
      2 C2         -0.1243   25.7973   60.9922 C.2     1  <0>        -0.0545
      3 C3         -0.3789   26.9279   61.8695 C.2     1  <0>        -0.0511
      4 C4          0.1888   23.0511   70.8443 C.ar    1  <0>        -0.0479
      5 C5         -1.2833   22.1993   69.1424 C.ar    1  <0>        -0.0479
      6 C6          0.0098   21.8761   71.5895 C.ar    1  <0>        -0.0399
      7 C7         -1.4632   21.0222   69.8896 C.ar    1  <0>        -0.0399
      8 C8         -1.1092   24.8265   61.1330 C.2     1  <0>        -0.0241
      9 C9         -0.6959   27.0135   66.1797 C.2     1  <0>         0.0164
     10 C10         0.5772   29.1759   65.9337 C.2     1  <0>         0.0272
     11 C11        -0.6423   17.7031   70.4684 C.3     1  <0>        -0.0160
     12 C12         1.1589   18.4715   71.9479 C.3     1  <0>        -0.0160
     13 C13        -1.6376   18.4440   71.3661 C.3     1  <0>         0.0525
     14 C14         0.1111   19.1810   72.8090 C.3     1  <0>         0.0525
     15 C15        -2.1262   27.6862   63.6393 C.3     1  <0>         0.0561
     16 C16        -0.4469   23.2463   69.5992 C.ar    1  <0>         0.0372
     17 C17        -0.8205   20.8263   71.1386 C.ar    1  <0>         0.0301
     18 C18        -1.5439   26.7326   62.6216 C.2     1  <0>        -0.0014
     19 C19         0.2498   27.2641   67.3078 C.2     1  <0>         0.0547
     20 C20         0.9107   28.4094   67.1555 C.2     1  <0>         0.0744
     21 C21         0.7368   26.6901   68.5698 C.2     1  <0>         0.1535
     22 C22        -1.0307   28.5666   64.2261 C.2     1  <0>         0.2281
     23 C23        -0.2642   24.4858   68.7761 C.2     1  <0>         0.2494
     24 N1          1.7339   28.5137   68.2455 N.pl3   1  <0>        -0.2341
     25 N2          1.6218   27.5161   69.0437 N.2     1  <0>        -0.1660
     26 N3          0.4534   25.5134   69.2755 N.am    1  <0>        -0.2646
     27 N4         -0.4344   28.2458   65.3780 N.am    1  <0>        -0.2510
     28 N5          0.5614   17.3158   71.2416 N.4     1  <0>         0.2353
     29 N6         -0.9853   19.6347   71.9397 N.pl3   1  <0>        -0.3198
     30 O1         -0.7137   29.5874   63.6204 O.2     1  <0>        -0.2746
     31 O2         -0.7657   24.4898   67.6541 O.2     1  <0>        -0.2698
     32 S1         -2.3280   25.2349   62.2907 S.3     1  <0>        -0.1011
     33 H1          2.4309   16.3384   71.0313 H       1  <0>         0.0778
     34 H2          1.1105   15.6859   70.0030 H       1  <0>         0.0778
     35 H3          1.8830   17.2531   69.5858 H       1  <0>         0.0778
     36 H4          0.7178   25.7217   60.3202 H       1  <0>         0.0623
     37 H5          0.2488   27.8045   61.9332 H       1  <0>         0.0626
     38 H6          0.8304   23.8276   71.2339 H       1  <0>         0.0626
     39 H7         -1.7952   22.3075   68.1976 H       1  <0>         0.0626
     40 H8          0.5215   21.7713   72.5349 H       1  <0>         0.0636
     41 H9         -2.1076   20.2468   69.5025 H       1  <0>         0.0636
     42 H10        -1.1131   23.9036   60.5720 H       1  <0>         0.0693
     43 H11        -1.3680   26.1879   65.9979 H       1  <0>         0.0796
     44 H12         0.9533   30.1180   65.5631 H       1  <0>         0.0807
     45 H13        -1.1216   16.7974   70.0684 H       1  <0>         0.0830
     46 H14        -0.3429   18.3623   69.6402 H       1  <0>         0.0830
     47 H15         1.5539   19.1808   71.2058 H       1  <0>         0.0830
     48 H16         1.9737   18.1146   72.5951 H       1  <0>         0.0830
     49 H17        -2.5094   18.7535   70.7709 H       1  <0>         0.0516
     50 H18        -1.9664   17.7783   72.1777 H       1  <0>         0.0516
     51 H19        -0.2794   18.4857   73.5668 H       1  <0>         0.0516
     52 H20         0.5680   20.0457   73.3124 H       1  <0>         0.0516
     53 H21        -2.8783   28.3225   63.1498 H       1  <0>         0.0412
     54 H22        -2.5978   27.1084   64.4479 H       1  <0>         0.0412
     55 H23         2.3537   29.2827   68.4016 H       1  <0>         0.1745
     56 H24         0.8052   25.4298   70.2079 H       1  <0>         0.1566
     57 H25         0.2544   16.6686   71.9393 H       1  <0>         0.2032
@<TRIPOS>BOND
     1     1    28    1
     2     2     3    1
     3     2     8    2
     4     3    18    2
     5     4     6   ar
     6     4    16   ar
     7     5     7   ar
     8     5    16   ar
     9     6    17   ar
    10     7    17   ar
    11     8    32    1
    12     9    19    2
    13     9    27    1
    14    10    20    2
    15    10    27    1
    16    11    13    1
    17    11    28    1
    18    12    14    1
    19    12    28    1
    20    13    29    1
    21    14    29    1
    22    15    18    1
    23    15    22    1
    24    16    23    1
    25    17    29    1
    26    18    32    1
    27    19    20    1
    28    19    21    1
    29    20    24    1
    30    21    25    2
    31    21    26    1
    32    22    27   am
    33    22    30    2
    34    23    26   am
    35    23    31    2
    36    24    25    1
    37     1    33    1
    38     1    34    1
    39     1    35    1
    40     2    36    1
    41     3    37    1
    42     4    38    1
    43     5    39    1
    44     6    40    1
    45     7    41    1
    46     8    42    1
    47     9    43    1
    48    10    44    1
    49    11    45    1
    50    11    46    1
    51    12    47    1
    52    12    48    1
    53    13    49    1
    54    13    50    1
    55    14    51    1
    56    14    52    1
    57    15    53    1
    58    15    54    1
    59    24    55    1
    60    26    56    1
    61    28    57    1
@<TRIPOS>SUBSTRUCTURE
     1 <0>         1 TEMP              0 ****  ****    0 ROOT

