
##########                                Name:        626_500_2OWB
##########                    Molecular_Weight:             449.557
##########                DOCK_Rotatable_Bonds:                   7
##########                       Formal_Charge:              1.0001
##########                     HBond_Acceptors:                   9
##########                        HBond_Donors:                   3
##########                         Heavy_Atoms:                  32
##########                            HA_RMSDs:               0.445
##########                            HA_RMSDh:               0.445
##########                            HA_RMSDm:               0.445
##########                          Grid_Score:         -110.188736
##########                     Grid_vdw_energy:          -63.833462
##########                      Grid_es_energy:          -46.355274
##########           Internal_energy_repulsive:           16.035583

@<TRIPOS>MOLECULE
626_500_2OWB
 57 61 1 0 0
SMALL
USER_CHARGES


@<TRIPOS>ATOM
      1 C1          2.0178   17.5105   70.7389 C.3     1  <0>        -0.0430
      2 C2         -0.0273   25.7832   61.1743 C.2     1  <0>        -0.0545
      3 C3         -0.1743   26.9863   61.9766 C.2     1  <0>        -0.0511
      4 C4          0.2215   23.4959   70.4542 C.ar    1  <0>        -0.0479
      5 C5         -1.5761   22.9025   68.9690 C.ar    1  <0>        -0.0479
      6 C6          0.0183   22.3105   71.1765 C.ar    1  <0>        -0.0399
      7 C7         -1.7802   21.7150   69.6933 C.ar    1  <0>        -0.0399
      8 C8         -1.2287   25.0887   61.0941 C.2     1  <0>        -0.0241
      9 C9         -0.5430   27.4918   65.8178 C.2     1  <0>         0.0164
     10 C10         0.8183   29.5959   65.5402 C.2     1  <0>         0.0272
     11 C11        -0.2662   18.3139   70.2840 C.3     1  <0>        -0.0160
     12 C12         1.0507   19.3046   72.1028 C.3     1  <0>        -0.0160
     13 C13        -1.5215   18.9145   70.9232 C.3     1  <0>         0.0525
     14 C14        -0.2433   19.8675   72.6956 C.3     1  <0>         0.0525
     15 C15        -2.0143   28.2374   63.3216 C.3     1  <0>         0.0561
     16 C16        -0.5642   23.8251   69.3287 C.ar    1  <0>         0.0372
     17 C17        -0.9870   21.3841   70.8215 C.ar    1  <0>         0.0301
     18 C18        -1.4837   27.1190   62.4546 C.2     1  <0>        -0.0014
     19 C19         0.4452   27.6956   66.9186 C.2     1  <0>         0.0547
     20 C20         1.1522   28.8107   66.7500 C.2     1  <0>         0.0744
     21 C21         0.9420   27.0958   68.1646 C.2     1  <0>         0.1535
     22 C22        -0.8639   29.0657   63.8785 C.2     1  <0>         0.2281
     23 C23        -0.3613   25.0781   68.5313 C.2     1  <0>         0.2494
     24 N1          2.0103   28.8739   67.8160 N.pl3   1  <0>        -0.2341
     25 N2          1.8766   27.8795   68.6147 N.2     1  <0>        -0.1660
     26 N3          0.6265   25.9303   68.8755 N.am    1  <0>        -0.2646
     27 N4         -0.2496   28.7142   65.0119 N.am    1  <0>        -0.2510
     28 N5          0.7770   18.0838   71.3115 N.4     1  <0>         0.2353
     29 N6         -1.1701   20.1778   71.5962 N.pl3   1  <0>        -0.3198
     30 O1         -0.5190   30.0734   63.2663 O.2     1  <0>        -0.2746
     31 O2         -1.1042   25.2533   67.5680 O.2     1  <0>        -0.2698
     32 S1         -2.5258   25.8406   61.9571 S.3     1  <0>        -0.1011
     33 H1          2.7565   17.3599   71.5401 H       1  <0>         0.0778
     34 H2          1.7902   16.5448   70.2640 H       1  <0>         0.0778
     35 H3          2.4279   18.2013   69.9875 H       1  <0>         0.0778
     36 H4          0.8929   25.4705   60.7032 H       1  <0>         0.0623
     37 H5          0.6228   27.6868   62.1778 H       1  <0>         0.0626
     38 H6          1.0004   24.1751   70.7679 H       1  <0>         0.0626
     39 H7         -2.2060   23.1159   68.1181 H       1  <0>         0.0626
     40 H8          0.6484   22.1004   72.0281 H       1  <0>         0.0636
     41 H9         -2.5612   21.0370   69.3825 H       1  <0>         0.0636
     42 H10        -1.3418   24.1660   60.5442 H       1  <0>         0.0693
     43 H11        -1.2565   26.6979   65.6536 H       1  <0>         0.0796
     44 H12         1.2256   30.5215   65.1611 H       1  <0>         0.0807
     45 H13        -0.5251   17.3550   69.8112 H       1  <0>         0.0830
     46 H14         0.1213   19.0100   69.5255 H       1  <0>         0.0830
     47 H15         1.5052   20.0626   71.4479 H       1  <0>         0.0830
     48 H16         1.7417   19.0546   72.9213 H       1  <0>         0.0830
     49 H17        -2.2729   19.1100   70.1440 H       1  <0>         0.0516
     50 H18        -1.9329   18.2082   71.6593 H       1  <0>         0.0516
     51 H19        -0.6987   19.1240   73.3663 H       1  <0>         0.0516
     52 H20        -0.0235   20.7824   73.2653 H       1  <0>         0.0516
     53 H21        -2.6669   28.8850   62.7174 H       1  <0>         0.0412
     54 H22        -2.5875   27.8073   64.1561 H       1  <0>         0.0412
     55 H23         2.6683   29.6137   67.9559 H       1  <0>         0.1745
     56 H24         1.1674   25.7166   69.6889 H       1  <0>         0.1566
     57 H25         0.4095   17.3991   71.9408 H       1  <0>         0.2032
@<TRIPOS>BOND
     1     1    28    1
     2     2     3    1
     3     2     8    2
     4     3    18    2
     5     4     6   ar
     6     4    16   ar
     7     5     7   ar
     8     5    16   ar
     9     6    17   ar
    10     7    17   ar
    11     8    32    1
    12     9    19    2
    13     9    27    1
    14    10    20    2
    15    10    27    1
    16    11    13    1
    17    11    28    1
    18    12    14    1
    19    12    28    1
    20    13    29    1
    21    14    29    1
    22    15    18    1
    23    15    22    1
    24    16    23    1
    25    17    29    1
    26    18    32    1
    27    19    20    1
    28    19    21    1
    29    20    24    1
    30    21    25    2
    31    21    26    1
    32    22    27   am
    33    22    30    2
    34    23    26   am
    35    23    31    2
    36    24    25    1
    37     1    33    1
    38     1    34    1
    39     1    35    1
    40     2    36    1
    41     3    37    1
    42     4    38    1
    43     5    39    1
    44     6    40    1
    45     7    41    1
    46     8    42    1
    47     9    43    1
    48    10    44    1
    49    11    45    1
    50    11    46    1
    51    12    47    1
    52    12    48    1
    53    13    49    1
    54    13    50    1
    55    14    51    1
    56    14    52    1
    57    15    53    1
    58    15    54    1
    59    24    55    1
    60    26    56    1
    61    28    57    1
@<TRIPOS>SUBSTRUCTURE
     1 <0>         1 TEMP              0 ****  ****    0 ROOT

