
##########                                Name:        HXA_200_1MV9
##########                    Molecular_Weight:             327.487
##########                DOCK_Rotatable_Bonds:                  20
##########                       Formal_Charge:           -0.999301
##########                     HBond_Acceptors:                   2
##########                        HBond_Donors:                   0
##########                         Heavy_Atoms:                  24
##########                            HA_RMSDs:              16.803
##########                            HA_RMSDh:              15.978
##########                            HA_RMSDm:              14.184
##########                          Grid_Score:           -2.749092
##########                     Grid_vdw_energy:          -22.668871
##########                      Grid_es_energy:           19.919779
##########           Internal_energy_repulsive:            9.478402

@<TRIPOS>MOLECULE
HXA_200_1MV9
 55 54 1 0 0
SMALL
USER_CHARGES


@<TRIPOS>ATOM
      1 C1         75.0856   39.5809   38.6967 C.3     1  <0>        -0.0618
      2 C2         75.0790   39.0363   37.2694 C.3     1  <0>        -0.0376
      3 C3         72.3927   47.8767   43.2751 C.3     1  <0>        -0.0297
      4 C4         73.4504   47.7890   44.3685 C.3     1  <0>        -0.0098
      5 C5         72.0413   38.7712   35.6483 C.3     1  <0>        -0.0165
      6 C6         72.5940   46.4490   40.4513 C.3     1  <0>        -0.0165
      7 C7         72.5804   42.0492   35.5562 C.3     1  <0>        -0.0165
      8 C8         75.8246   45.4132   40.0254 C.3     1  <0>        -0.0165
      9 C9         74.1851   45.3445   36.7988 C.3     1  <0>        -0.0165
     10 C10        73.9638   38.0660   37.0274 C.2     1  <0>        -0.0879
     11 C11        71.8288   46.5430   42.9097 C.2     1  <0>        -0.0873
     12 C12        72.6895   38.4836   36.9615 C.2     1  <0>        -0.0842
     13 C13        72.1600   45.8977   41.7757 C.2     1  <0>        -0.0842
     14 C14        71.1862   39.9906   35.7450 C.2     1  <0>        -0.0839
     15 C15        73.9498   47.0728   40.5141 C.2     1  <0>        -0.0839
     16 C16        71.6936   41.0998   36.2979 C.2     1  <0>        -0.0839
     17 C17        75.0639   46.4107   40.8426 C.2     1  <0>        -0.0839
     18 C18        72.6851   43.3626   36.2785 C.2     1  <0>        -0.0839
     19 C19        75.0455   44.6697   38.9886 C.2     1  <0>        -0.0839
     20 C20        73.6905   44.1978   35.9645 C.2     1  <0>        -0.0839
     21 C21        75.3032   44.8985   37.6912 C.2     1  <0>        -0.0839
     22 C22        72.8111   47.9832   45.7287 C.2     1  <0>         0.0420
     23 O1         73.2400   47.0414   46.5824 O.co2   1  <0>        -0.5498
     24 O2         72.0140   48.8275   46.0031 O.co2   1  <0>        -0.5498
     25 H1         75.9218   40.2854   38.8171 H       1  <0>         0.0233
     26 H2         74.1368   40.1011   38.8949 H       1  <0>         0.0233
     27 H3         75.2027   38.7484   39.4061 H       1  <0>         0.0233
     28 H4         74.9613   39.8815   36.5753 H       1  <0>         0.0305
     29 H5         76.0338   38.5205   37.0897 H       1  <0>         0.0305
     30 H6         71.5718   48.5136   43.6364 H       1  <0>         0.0311
     31 H7         72.8554   48.3154   42.3788 H       1  <0>         0.0311
     32 H8         73.9299   46.7997   44.3309 H       1  <0>         0.0328
     33 H9         74.2050   48.5729   44.2070 H       1  <0>         0.0328
     34 H10        72.8205   38.9361   34.8896 H       1  <0>         0.0350
     35 H11        71.4157   37.9138   35.3593 H       1  <0>         0.0350
     36 H12        72.6210   45.6262   39.7218 H       1  <0>         0.0350
     37 H13        71.8704   47.2158   40.1375 H       1  <0>         0.0350
     38 H14        73.5841   41.6077   35.4695 H       1  <0>         0.0350
     39 H15        72.1594   42.2241   34.5551 H       1  <0>         0.0350
     40 H16        76.6221   45.9613   39.5024 H       1  <0>         0.0350
     41 H17        76.2348   44.6670   40.7217 H       1  <0>         0.0350
     42 H18        74.5495   46.1427   36.1354 H       1  <0>         0.0350
     43 H19        73.3585   45.7232   37.4178 H       1  <0>         0.0350
     44 H20        74.1878   37.0167   36.9042 H       1  <0>         0.0569
     45 H21        71.1255   46.0765   43.5837 H       1  <0>         0.0569
     46 H22        72.1249   38.6135   37.8730 H       1  <0>         0.0572
     47 H23        72.1045   44.8205   41.8280 H       1  <0>         0.0572
     48 H24        70.1720   39.9787   35.3741 H       1  <0>         0.0572
     49 H25        74.0355   48.1235   40.2795 H       1  <0>         0.0572
     50 H26        71.4512   41.3190   37.3272 H       1  <0>         0.0572
     51 H27        75.4663   46.6223   41.8222 H       1  <0>         0.0572
     52 H28        71.9647   43.6310   37.0371 H       1  <0>         0.0572
     53 H29        74.2863   43.9587   39.2793 H       1  <0>         0.0572
     54 H30        74.1904   44.0279   35.0223 H       1  <0>         0.0572
     55 H31        76.2996   44.7634   37.2972 H       1  <0>         0.0572
@<TRIPOS>BOND
     1     1     2    1
     2     2    10    1
     3     3     4    1
     4     3    11    1
     5     4    22    1
     6     5    12    1
     7     5    14    1
     8     6    13    1
     9     6    15    1
    10     7    16    1
    11     7    18    1
    12     8    17    1
    13     8    19    1
    14     9    20    1
    15     9    21    1
    16    10    12    2
    17    11    13    2
    18    14    16    2
    19    15    17    2
    20    18    20    2
    21    19    21    2
    22    22    23    1
    23    22    24    2
    24     1    25    1
    25     1    26    1
    26     1    27    1
    27     2    28    1
    28     2    29    1
    29     3    30    1
    30     3    31    1
    31     4    32    1
    32     4    33    1
    33     5    34    1
    34     5    35    1
    35     6    36    1
    36     6    37    1
    37     7    38    1
    38     7    39    1
    39     8    40    1
    40     8    41    1
    41     9    42    1
    42     9    43    1
    43    10    44    1
    44    11    45    1
    45    12    46    1
    46    13    47    1
    47    14    48    1
    48    15    49    1
    49    16    50    1
    50    17    51    1
    51    18    52    1
    52    19    53    1
    53    20    54    1
    54    21    55    1
@<TRIPOS>SUBSTRUCTURE
     1 <0>         1 TEMP              0 ****  ****    0 ROOT

