
##########                                Name:        HXA_200_1MV9
##########                    Molecular_Weight:             327.487
##########                DOCK_Rotatable_Bonds:                  20
##########                       Formal_Charge:           -0.999301
##########                     HBond_Acceptors:                   2
##########                        HBond_Donors:                   0
##########                         Heavy_Atoms:                  24
##########                            HA_RMSDs:               0.592
##########                            HA_RMSDh:               0.592
##########                            HA_RMSDm:               0.592
##########                          Grid_Score:           31.478502
##########                     Grid_vdw_energy:          -25.029154
##########                      Grid_es_energy:           56.507656
##########           Internal_energy_repulsive:            8.461074

@<TRIPOS>MOLECULE
HXA_200_1MV9
 55 54 1 0 0
SMALL
USER_CHARGES


@<TRIPOS>ATOM
      1 C1         61.1389   47.7299   34.0484 C.3     1  <0>        -0.0618
      2 C2         62.6439   47.9836   34.1143 C.3     1  <0>        -0.0376
      3 C3         57.3530   44.9112   29.6161 C.3     1  <0>        -0.0297
      4 C4         56.1018   45.5536   29.0300 C.3     1  <0>        -0.0098
      5 C5         64.7324   45.5451   35.3865 C.3     1  <0>        -0.0165
      6 C6         60.3443   45.8730   30.0403 C.3     1  <0>        -0.0165
      7 C7         65.3071   45.0824   32.1461 C.3     1  <0>        -0.0165
      8 C8         61.7673   48.3380   28.1457 C.3     1  <0>        -0.0165
      9 C9         64.4085   45.8837   28.4679 C.3     1  <0>        -0.0165
     10 C10        63.2511   47.5203   35.4027 C.2     1  <0>        -0.0879
     11 C11        57.8892   45.6597   30.7919 C.2     1  <0>        -0.0873
     12 C12        63.4239   46.2123   35.6518 C.2     1  <0>        -0.0842
     13 C13        59.1022   46.2434   30.7928 C.2     1  <0>        -0.0842
     14 C14        64.5562   44.4147   34.4281 C.2     1  <0>        -0.0839
     15 C15        60.2931   46.3092   28.6126 C.2     1  <0>        -0.0839
     16 C16        64.2698   44.6846   33.1480 C.2     1  <0>        -0.0839
     17 C17        60.4844   47.5688   28.2074 C.2     1  <0>        -0.0839
     18 C18        64.8224   44.8383   30.7450 C.2     1  <0>        -0.0839
     19 C19        62.9190   47.7741   28.9140 C.2     1  <0>        -0.0839
     20 C20        65.0993   45.7479   29.7947 C.2     1  <0>        -0.0839
     21 C21        63.9816   47.3023   28.2429 C.2     1  <0>        -0.0839
     22 C22        54.9231   45.3407   29.9585 C.2     1  <0>         0.0420
     23 O1         54.2085   46.4707   30.0688 O.co2   1  <0>        -0.5498
     24 O2         54.6758   44.3286   30.5399 O.co2   1  <0>        -0.5498
     25 H1         60.7480   48.0883   33.0847 H       1  <0>         0.0233
     26 H2         60.9444   46.6515   34.1445 H       1  <0>         0.0233
     27 H3         60.6404   48.2671   34.8688 H       1  <0>         0.0233
     28 H4         63.1247   47.4396   33.2879 H       1  <0>         0.0305
     29 H5         62.8188   49.0652   34.0166 H       1  <0>         0.0305
     30 H6         57.1003   43.8907   29.9399 H       1  <0>         0.0311
     31 H7         58.1287   44.8874   28.8365 H       1  <0>         0.0311
     32 H8         56.2733   46.6327   28.9031 H       1  <0>         0.0328
     33 H9         55.8821   45.0960   28.0541 H       1  <0>         0.0328
     34 H10        65.4304   46.2781   34.9556 H       1  <0>         0.0350
     35 H11        65.1375   45.1564   36.3324 H       1  <0>         0.0350
     36 H12        61.2043   46.3592   30.5239 H       1  <0>         0.0350
     37 H13        60.4570   44.7792   30.0681 H       1  <0>         0.0350
     38 H14        65.5287   46.1531   32.2665 H       1  <0>         0.0350
     39 H15        66.2171   44.4889   32.3184 H       1  <0>         0.0350
     40 H16        62.0707   48.3811   27.0893 H       1  <0>         0.0350
     41 H17        61.5655   49.3406   28.5508 H       1  <0>         0.0350
     42 H18        65.1015   45.5842   27.6680 H       1  <0>         0.0350
     43 H19        63.5214   45.2336   28.4548 H       1  <0>         0.0350
     44 H20        63.5540   48.2479   36.1411 H       1  <0>         0.0569
     45 H21        57.2779   45.7360   31.6790 H       1  <0>         0.0569
     46 H22        62.6034   45.6341   36.0503 H       1  <0>         0.0572
     47 H23        59.1942   47.1089   31.4320 H       1  <0>         0.0572
     48 H24        64.6581   43.3929   34.7623 H       1  <0>         0.0572
     49 H25        60.0891   45.5607   27.8612 H       1  <0>         0.0572
     50 H26        63.2422   44.6116   32.8239 H       1  <0>         0.0572
     51 H27        59.6010   48.0989   27.8833 H       1  <0>         0.0572
     52 H28        64.2613   43.9472   30.5054 H       1  <0>         0.0572
     53 H29        62.8964   47.7465   29.9934 H       1  <0>         0.0572
     54 H30        65.8943   46.4479   30.0053 H       1  <0>         0.0572
     55 H31        64.5198   47.9347   27.5524 H       1  <0>         0.0572
@<TRIPOS>BOND
     1     1     2    1
     2     2    10    1
     3     3     4    1
     4     3    11    1
     5     4    22    1
     6     5    12    1
     7     5    14    1
     8     6    13    1
     9     6    15    1
    10     7    16    1
    11     7    18    1
    12     8    17    1
    13     8    19    1
    14     9    20    1
    15     9    21    1
    16    10    12    2
    17    11    13    2
    18    14    16    2
    19    15    17    2
    20    18    20    2
    21    19    21    2
    22    22    23    1
    23    22    24    2
    24     1    25    1
    25     1    26    1
    26     1    27    1
    27     2    28    1
    28     2    29    1
    29     3    30    1
    30     3    31    1
    31     4    32    1
    32     4    33    1
    33     5    34    1
    34     5    35    1
    35     6    36    1
    36     6    37    1
    37     7    38    1
    38     7    39    1
    39     8    40    1
    40     8    41    1
    41     9    42    1
    42     9    43    1
    43    10    44    1
    44    11    45    1
    45    12    46    1
    46    13    47    1
    47    14    48    1
    48    15    49    1
    49    16    50    1
    50    17    51    1
    51    18    52    1
    52    19    53    1
    53    20    54    1
    54    21    55    1
@<TRIPOS>SUBSTRUCTURE
     1 <0>         1 TEMP              0 ****  ****    0 ROOT

