
##########                                Name:        HXA_200_1MV9
##########                    Molecular_Weight:             327.487
##########                DOCK_Rotatable_Bonds:                  20
##########                       Formal_Charge:           -0.999301
##########                     HBond_Acceptors:                   2
##########                        HBond_Donors:                   0
##########                         Heavy_Atoms:                  24
##########                            HA_RMSDs:               0.696
##########                            HA_RMSDh:               0.696
##########                            HA_RMSDm:               0.696
##########                          Grid_Score:           16.666199
##########                     Grid_vdw_energy:          -39.473297
##########                      Grid_es_energy:           56.139496
##########           Internal_energy_repulsive:           11.146955

@<TRIPOS>MOLECULE
HXA_200_1MV9
 55 54 1 0 0
SMALL
USER_CHARGES


@<TRIPOS>ATOM
      1 C1         60.6286   47.2598   34.3550 C.3     1  <0>        -0.0618
      2 C2         62.0052   47.7521   33.9118 C.3     1  <0>        -0.0376
      3 C3         57.4181   44.9115   29.5711 C.3     1  <0>        -0.0297
      4 C4         56.1271   45.5537   29.0785 C.3     1  <0>        -0.0098
      5 C5         64.6754   46.0441   35.2827 C.3     1  <0>        -0.0165
      6 C6         60.4367   45.8509   29.8129 C.3     1  <0>        -0.0165
      7 C7         65.1392   45.3822   32.0591 C.3     1  <0>        -0.0165
      8 C8         61.8017   48.3668   27.9428 C.3     1  <0>        -0.0165
      9 C9         64.4443   45.9173   28.2897 C.3     1  <0>        -0.0165
     10 C10        62.9833   47.8261   35.0438 C.2     1  <0>        -0.0879
     11 C11        58.0312   45.6518   30.7141 C.2     1  <0>        -0.0873
     12 C12        63.3984   46.7130   35.6694 C.2     1  <0>        -0.0842
     13 C13        59.2461   46.2270   30.6420 C.2     1  <0>        -0.0842
     14 C14        64.4042   44.8805   34.3884 C.2     1  <0>        -0.0839
     15 C15        60.3245   46.3393   28.4058 C.2     1  <0>        -0.0839
     16 C16        64.1039   45.1033   33.1025 C.2     1  <0>        -0.0839
     17 C17        60.5131   47.6106   28.0374 C.2     1  <0>        -0.0839
     18 C18        64.6094   45.0880   30.6842 C.2     1  <0>        -0.0839
     19 C19        62.9562   47.8136   28.7147 C.2     1  <0>        -0.0839
     20 C20        65.0871   45.7885   29.6410 C.2     1  <0>        -0.0839
     21 C21        64.0165   47.3327   28.0464 C.2     1  <0>        -0.0839
     22 C22        55.0307   45.3769   30.1097 C.2     1  <0>         0.0420
     23 O1         54.1696   46.4040   30.0530 O.co2   1  <0>        -0.5498
     24 O2         54.9533   44.4759   30.8880 O.co2   1  <0>        -0.5498
     25 H1         59.9540   47.2254   33.4869 H       1  <0>         0.0233
     26 H2         60.7213   46.2525   34.7873 H       1  <0>         0.0233
     27 H3         60.2193   47.9469   35.1102 H       1  <0>         0.0233
     28 H4         62.3981   47.0539   33.1579 H       1  <0>         0.0305
     29 H5         61.8930   48.7588   33.4829 H       1  <0>         0.0305
     30 H6         57.1920   43.8871   29.9021 H       1  <0>         0.0311
     31 H7         58.1384   44.8980   28.7398 H       1  <0>         0.0311
     32 H8         56.2972   46.6274   28.9103 H       1  <0>         0.0328
     33 H9         55.8201   45.0752   28.1368 H       1  <0>         0.0328
     34 H10        65.3145   46.7655   34.7525 H       1  <0>         0.0350
     35 H11        65.1866   45.6903   36.1902 H       1  <0>         0.0350
     36 H12        61.3341   46.2962   30.2672 H       1  <0>         0.0350
     37 H13        60.5194   44.7541   29.7969 H       1  <0>         0.0350
     38 H14        65.4246   46.4432   32.1131 H       1  <0>         0.0350
     39 H15        66.0173   44.7471   32.2477 H       1  <0>         0.0350
     40 H16        62.0949   48.3790   26.8826 H       1  <0>         0.0350
     41 H17        61.6123   49.3816   28.3228 H       1  <0>         0.0350
     42 H18        65.1681   45.6212   27.5161 H       1  <0>         0.0350
     43 H19        63.5626   45.2612   28.2455 H       1  <0>         0.0350
     44 H20        63.3597   48.7875   35.3608 H       1  <0>         0.0569
     45 H21        57.4764   45.7289   31.6375 H       1  <0>         0.0569
     46 H22        62.7990   46.2953   36.4648 H       1  <0>         0.0572
     47 H23        59.3837   47.0894   31.2773 H       1  <0>         0.0572
     48 H24        64.4495   43.8724   34.7731 H       1  <0>         0.0572
     49 H25        60.0756   45.6211   27.6385 H       1  <0>         0.0572
     50 H26        63.0661   45.0805   32.8048 H       1  <0>         0.0572
     51 H27        59.6226   48.1622   27.7747 H       1  <0>         0.0572
     52 H28        63.8578   44.3267   30.5366 H       1  <0>         0.0572
     53 H29        62.9375   47.8011   29.7945 H       1  <0>         0.0572
     54 H30        66.0222   46.3082   29.7887 H       1  <0>         0.0572
     55 H31        64.5521   47.9554   27.3452 H       1  <0>         0.0572
@<TRIPOS>BOND
     1     1     2    1
     2     2    10    1
     3     3     4    1
     4     3    11    1
     5     4    22    1
     6     5    12    1
     7     5    14    1
     8     6    13    1
     9     6    15    1
    10     7    16    1
    11     7    18    1
    12     8    17    1
    13     8    19    1
    14     9    20    1
    15     9    21    1
    16    10    12    2
    17    11    13    2
    18    14    16    2
    19    15    17    2
    20    18    20    2
    21    19    21    2
    22    22    23    1
    23    22    24    2
    24     1    25    1
    25     1    26    1
    26     1    27    1
    27     2    28    1
    28     2    29    1
    29     3    30    1
    30     3    31    1
    31     4    32    1
    32     4    33    1
    33     5    34    1
    34     5    35    1
    35     6    36    1
    36     6    37    1
    37     7    38    1
    38     7    39    1
    39     8    40    1
    40     8    41    1
    41     9    42    1
    42     9    43    1
    43    10    44    1
    44    11    45    1
    45    12    46    1
    46    13    47    1
    47    14    48    1
    48    15    49    1
    49    16    50    1
    50    17    51    1
    51    18    52    1
    52    19    53    1
    53    20    54    1
    54    21    55    1
@<TRIPOS>SUBSTRUCTURE
     1 <0>         1 TEMP              0 ****  ****    0 ROOT

