
##########                                Name:        HXA_200_1MV9
##########                    Molecular_Weight:             327.487
##########                DOCK_Rotatable_Bonds:                  20
##########                       Formal_Charge:           -0.999301
##########                     HBond_Acceptors:                   2
##########                        HBond_Donors:                   0
##########                         Heavy_Atoms:                  24
##########                            HA_RMSDs:               0.661
##########                            HA_RMSDh:               0.661
##########                            HA_RMSDm:               0.661
##########                          Grid_Score:           23.687210
##########                     Grid_vdw_energy:          -33.947056
##########                      Grid_es_energy:           57.634266
##########           Internal_energy_repulsive:           11.306924

@<TRIPOS>MOLECULE
HXA_200_1MV9
 55 54 1 0 0
SMALL
USER_CHARGES


@<TRIPOS>ATOM
      1 C1         61.3716   47.7040   34.7274 C.3     1  <0>        -0.0618
      2 C2         62.7388   47.6664   34.0470 C.3     1  <0>        -0.0376
      3 C3         57.2794   45.0339   29.3599 C.3     1  <0>        -0.0297
      4 C4         56.2105   46.0205   28.9060 C.3     1  <0>        -0.0098
      5 C5         65.0022   45.1286   34.6497 C.3     1  <0>        -0.0165
      6 C6         60.3314   45.8269   29.6898 C.3     1  <0>        -0.0165
      7 C7         64.8820   44.9080   31.3358 C.3     1  <0>        -0.0165
      8 C8         61.6870   48.6438   28.3050 C.3     1  <0>        -0.0165
      9 C9         64.0785   45.9927   27.7087 C.3     1  <0>        -0.0165
     10 C10        63.8402   47.2809   34.9861 C.2     1  <0>        -0.0879
     11 C11        57.9576   45.4579   30.6210 C.2     1  <0>        -0.0873
     12 C12        64.0165   46.0014   35.3528 C.2     1  <0>        -0.0842
     13 C13        59.1853   46.0098   30.6380 C.2     1  <0>        -0.0842
     14 C14        64.3080   44.2429   33.6694 C.2     1  <0>        -0.0839
     15 C15        60.1543   46.6084   28.4293 C.2     1  <0>        -0.0839
     16 C16        63.9378   44.7463   32.4850 C.2     1  <0>        -0.0839
     17 C17        60.3749   47.9230   28.3263 C.2     1  <0>        -0.0839
     18 C18        64.1368   44.9704   30.0326 C.2     1  <0>        -0.0839
     19 C19        62.8832   47.8616   28.7429 C.2     1  <0>        -0.0839
     20 C20        64.7487   45.5013   28.9599 C.2     1  <0>        -0.0839
     21 C21        63.7693   47.4547   27.8202 C.2     1  <0>        -0.0839
     22 C22        54.9338   45.8044   29.6934 C.2     1  <0>         0.0420
     23 O1         54.2438   46.9513   29.7836 O.co2   1  <0>        -0.5498
     24 O2         54.5973   44.7753   30.1947 O.co2   1  <0>        -0.5498
     25 H1         60.6041   47.9916   33.9937 H       1  <0>         0.0233
     26 H2         61.1364   46.7088   35.1327 H       1  <0>         0.0233
     27 H3         61.3897   48.4385   35.5460 H       1  <0>         0.0233
     28 H4         62.7018   46.9278   33.2326 H       1  <0>         0.0305
     29 H5         62.9565   48.6684   33.6485 H       1  <0>         0.0305
     30 H6         56.8006   44.0590   29.5340 H       1  <0>         0.0311
     31 H7         58.0380   44.9549   28.5672 H       1  <0>         0.0311
     32 H8         56.5699   47.0467   29.0722 H       1  <0>         0.0328
     33 H9         56.0069   45.8679   27.8357 H       1  <0>         0.0328
     34 H10        65.7267   45.7605   34.1151 H       1  <0>         0.0350
     35 H11        65.5259   44.5064   35.3904 H       1  <0>         0.0350
     36 H12        61.2530   46.1664   30.1853 H       1  <0>         0.0350
     37 H13        60.4055   44.7600   29.4324 H       1  <0>         0.0350
     38 H14        65.4501   45.8406   31.4681 H       1  <0>         0.0350
     39 H15        65.5693   44.0495   31.3141 H       1  <0>         0.0350
     40 H16        61.8674   48.9608   27.2672 H       1  <0>         0.0350
     41 H17        61.5958   49.5058   28.9822 H       1  <0>         0.0350
     42 H18        64.7494   45.8301   26.8524 H       1  <0>         0.0350
     43 H19        63.1417   45.4362   27.5588 H       1  <0>         0.0350
     44 H20        64.5012   48.0421   35.3734 H       1  <0>         0.0569
     45 H21        57.4414   45.3158   31.5589 H       1  <0>         0.0569
     46 H22        63.4360   45.5975   36.1691 H       1  <0>         0.0572
     47 H23        59.3726   46.6864   31.4587 H       1  <0>         0.0572
     48 H24        64.1068   43.2099   33.9120 H       1  <0>         0.0572
     49 H25        59.8278   46.0789   27.5465 H       1  <0>         0.0572
     50 H26        62.9097   45.0497   32.3532 H       1  <0>         0.0572
     51 H27        59.4948   48.5440   28.2487 H       1  <0>         0.0572
     52 H28        63.1268   44.5951   29.9590 H       1  <0>         0.0572
     53 H29        63.0324   47.6273   29.7866 H       1  <0>         0.0572
     54 H30        65.8248   45.5823   29.0016 H       1  <0>         0.0572
     55 H31        64.2512   48.1690   27.1692 H       1  <0>         0.0572
@<TRIPOS>BOND
     1     1     2    1
     2     2    10    1
     3     3     4    1
     4     3    11    1
     5     4    22    1
     6     5    12    1
     7     5    14    1
     8     6    13    1
     9     6    15    1
    10     7    16    1
    11     7    18    1
    12     8    17    1
    13     8    19    1
    14     9    20    1
    15     9    21    1
    16    10    12    2
    17    11    13    2
    18    14    16    2
    19    15    17    2
    20    18    20    2
    21    19    21    2
    22    22    23    1
    23    22    24    2
    24     1    25    1
    25     1    26    1
    26     1    27    1
    27     2    28    1
    28     2    29    1
    29     3    30    1
    30     3    31    1
    31     4    32    1
    32     4    33    1
    33     5    34    1
    34     5    35    1
    35     6    36    1
    36     6    37    1
    37     7    38    1
    38     7    39    1
    39     8    40    1
    40     8    41    1
    41     9    42    1
    42     9    43    1
    43    10    44    1
    44    11    45    1
    45    12    46    1
    46    13    47    1
    47    14    48    1
    48    15    49    1
    49    16    50    1
    50    17    51    1
    51    18    52    1
    52    19    53    1
    53    20    54    1
    54    21    55    1
@<TRIPOS>SUBSTRUCTURE
     1 <0>         1 TEMP              0 ****  ****    0 ROOT

