
##########                                Name:        HXA_200_1MV9
##########                    Molecular_Weight:             327.487
##########                DOCK_Rotatable_Bonds:                  20
##########                       Formal_Charge:           -0.999301
##########                     HBond_Acceptors:                   2
##########                        HBond_Donors:                   0
##########                         Heavy_Atoms:                  24
##########                            HA_RMSDs:               1.048
##########                            HA_RMSDh:               1.048
##########                            HA_RMSDm:               0.963
##########                          Grid_Score:           22.521839
##########                     Grid_vdw_energy:          -33.562260
##########                      Grid_es_energy:           56.084099
##########           Internal_energy_repulsive:           25.089958

@<TRIPOS>MOLECULE
HXA_200_1MV9
 55 54 1 0 0
SMALL
USER_CHARGES


@<TRIPOS>ATOM
      1 C1         60.0551   46.5573   34.1915 C.3     1  <0>        -0.0618
      2 C2         61.1951   47.3244   33.5240 C.3     1  <0>        -0.0376
      3 C3         57.4567   44.4685   29.9921 C.3     1  <0>        -0.0297
      4 C4         56.4870   45.3917   29.2647 C.3     1  <0>        -0.0098
      5 C5         64.0040   46.4424   35.3291 C.3     1  <0>        -0.0165
      6 C6         60.3060   45.8312   29.7138 C.3     1  <0>        -0.0165
      7 C7         64.5255   45.4049   32.2152 C.3     1  <0>        -0.0165
      8 C8         61.7110   48.3557   27.8854 C.3     1  <0>        -0.0165
      9 C9         63.8521   45.4835   28.4049 C.3     1  <0>        -0.0165
     10 C10        62.1719   47.8822   34.5130 C.2     1  <0>        -0.0879
     11 C11        58.2189   45.1664   31.0703 C.2     1  <0>        -0.0873
     12 C12        62.6799   47.1124   35.4887 C.2     1  <0>        -0.0842
     13 C13        59.3016   45.9267   30.8220 C.2     1  <0>        -0.0842
     14 C14        63.8491   45.1486   34.6015 C.2     1  <0>        -0.0839
     15 C15        59.9219   46.6548   28.5283 C.2     1  <0>        -0.0839
     16 C16        63.5255   45.1666   33.3022 C.2     1  <0>        -0.0839
     17 C17        60.3498   47.9031   28.3139 C.2     1  <0>        -0.0839
     18 C18        63.9907   44.9553   30.8850 C.2     1  <0>        -0.0839
     19 C19        62.8727   47.7199   28.5790 C.2     1  <0>        -0.0839
     20 C20        64.4887   45.5076   29.7651 C.2     1  <0>        -0.0839
     21 C21        63.6611   46.8784   27.8918 C.2     1  <0>        -0.0839
     22 C22        55.1923   45.5059   30.0442 C.2     1  <0>         0.0420
     23 O1         54.4459   46.5103   29.5606 O.co2   1  <0>        -0.5498
     24 O2         54.8855   44.8281   30.9768 O.co2   1  <0>        -0.5498
     25 H1         59.3713   46.1718   33.4209 H       1  <0>         0.0233
     26 H2         60.4676   45.7169   34.7690 H       1  <0>         0.0233
     27 H3         59.5054   47.2308   34.8655 H       1  <0>         0.0233
     28 H4         61.7325   46.6362   32.8549 H       1  <0>         0.0305
     29 H5         60.7642   48.1595   32.9520 H       1  <0>         0.0305
     30 H6         56.8808   43.6498   30.4482 H       1  <0>         0.0311
     31 H7         58.1753   44.0729   29.2593 H       1  <0>         0.0311
     32 H8         56.9403   46.3891   29.1663 H       1  <0>         0.0328
     33 H9         56.2746   44.9810   28.2666 H       1  <0>         0.0328
     34 H10        64.6746   47.1002   34.7568 H       1  <0>         0.0350
     35 H11        64.4323   46.2481   36.3236 H       1  <0>         0.0350
     36 H12        61.2760   46.1892   30.0889 H       1  <0>         0.0350
     37 H13        60.3811   44.7797   29.3995 H       1  <0>         0.0350
     38 H14        64.7502   46.4805   32.1654 H       1  <0>         0.0350
     39 H15        65.4416   44.8399   32.4420 H       1  <0>         0.0350
     40 H16        61.8074   48.1279   26.8135 H       1  <0>         0.0350
     41 H17        61.7697   49.4374   28.0768 H       1  <0>         0.0350
     42 H18        64.5026   44.9300   27.7118 H       1  <0>         0.0350
     43 H19        62.8730   44.9871   28.4735 H       1  <0>         0.0350
     44 H20        62.4716   48.9173   34.4404 H       1  <0>         0.0569
     45 H21        57.8874   45.0563   32.0923 H       1  <0>         0.0569
     46 H22        62.1217   46.9759   36.4032 H       1  <0>         0.0572
     47 H23        59.4722   46.7261   31.5279 H       1  <0>         0.0572
     48 H24        63.9961   44.2104   35.1159 H       1  <0>         0.0572
     49 H25        59.2575   46.2148   27.7994 H       1  <0>         0.0572
     50 H26        62.4945   45.0015   33.0261 H       1  <0>         0.0572
     51 H27        59.6207   48.6845   28.4696 H       1  <0>         0.0572
     52 H28        63.2195   44.2013   30.8295 H       1  <0>         0.0572
     53 H29        63.0747   47.9346   29.6180 H       1  <0>         0.0572
     54 H30        65.4369   46.0172   29.8517 H       1  <0>         0.0572
     55 H31        64.1495   47.2012   26.9842 H       1  <0>         0.0572
@<TRIPOS>BOND
     1     1     2    1
     2     2    10    1
     3     3     4    1
     4     3    11    1
     5     4    22    1
     6     5    12    1
     7     5    14    1
     8     6    13    1
     9     6    15    1
    10     7    16    1
    11     7    18    1
    12     8    17    1
    13     8    19    1
    14     9    20    1
    15     9    21    1
    16    10    12    2
    17    11    13    2
    18    14    16    2
    19    15    17    2
    20    18    20    2
    21    19    21    2
    22    22    23    1
    23    22    24    2
    24     1    25    1
    25     1    26    1
    26     1    27    1
    27     2    28    1
    28     2    29    1
    29     3    30    1
    30     3    31    1
    31     4    32    1
    32     4    33    1
    33     5    34    1
    34     5    35    1
    35     6    36    1
    36     6    37    1
    37     7    38    1
    38     7    39    1
    39     8    40    1
    40     8    41    1
    41     9    42    1
    42     9    43    1
    43    10    44    1
    44    11    45    1
    45    12    46    1
    46    13    47    1
    47    14    48    1
    48    15    49    1
    49    16    50    1
    50    17    51    1
    51    18    52    1
    52    19    53    1
    53    20    54    1
    54    21    55    1
@<TRIPOS>SUBSTRUCTURE
     1 <0>         1 TEMP              0 ****  ****    0 ROOT

