
##########                                Name:        HXA_200_1MV9
##########                    Molecular_Weight:             327.487
##########                DOCK_Rotatable_Bonds:                  20
##########                       Formal_Charge:           -0.999301
##########                     HBond_Acceptors:                   2
##########                        HBond_Donors:                   0
##########                         Heavy_Atoms:                  24
##########                            HA_RMSDs:               0.666
##########                            HA_RMSDh:               0.666
##########                            HA_RMSDm:               0.666
##########                          Grid_Score:           15.055748
##########                     Grid_vdw_energy:          -42.910423
##########                      Grid_es_energy:           57.966171
##########           Internal_energy_repulsive:           12.308612

@<TRIPOS>MOLECULE
HXA_200_1MV9
 55 54 1 0 0
SMALL
USER_CHARGES


@<TRIPOS>ATOM
      1 C1         61.0156   47.1135   33.8567 C.3     1  <0>        -0.0618
      2 C2         62.4003   47.7239   33.6474 C.3     1  <0>        -0.0376
      3 C3         57.1265   44.8015   29.5379 C.3     1  <0>        -0.0297
      4 C4         56.1424   45.6758   28.7705 C.3     1  <0>        -0.0098
      5 C5         64.8267   45.9694   35.3680 C.3     1  <0>        -0.0165
      6 C6         60.0771   45.8313   30.0727 C.3     1  <0>        -0.0165
      7 C7         65.1199   45.1570   32.1589 C.3     1  <0>        -0.0165
      8 C8         61.5283   48.2563   28.1480 C.3     1  <0>        -0.0165
      9 C9         64.0508   45.6809   28.4765 C.3     1  <0>        -0.0165
     10 C10        63.2054   47.7741   34.9094 C.2     1  <0>        -0.0879
     11 C11        57.6293   45.4550   30.7831 C.2     1  <0>        -0.0873
     12 C12        63.5143   46.6495   35.5747 C.2     1  <0>        -0.0842
     13 C13        58.8190   46.0814   30.8478 C.2     1  <0>        -0.0842
     14 C14        64.6472   44.7222   34.5682 C.2     1  <0>        -0.0839
     15 C15        59.9734   46.2993   28.6579 C.2     1  <0>        -0.0839
     16 C16        64.2185   44.8157   33.3030 C.2     1  <0>        -0.0839
     17 C17        60.2107   47.5551   28.2656 C.2     1  <0>        -0.0839
     18 C18        64.4566   44.8579   30.8443 C.2     1  <0>        -0.0839
     19 C19        62.6708   47.6569   28.9031 C.2     1  <0>        -0.0839
     20 C20        64.8256   45.5572   29.7572 C.2     1  <0>        -0.0839
     21 C21        63.6896   47.1123   28.2194 C.2     1  <0>        -0.0839
     22 C22        54.8823   45.8822   29.5868 C.2     1  <0>         0.0420
     23 O1         54.3107   47.0540   29.2708 O.co2   1  <0>        -0.5498
     24 O2         54.4673   45.1334   30.4178 O.co2   1  <0>        -0.5498
     25 H1         60.4711   47.1020   32.9010 H       1  <0>         0.0233
     26 H2         61.1215   46.0844   34.2304 H       1  <0>         0.0233
     27 H3         60.4572   47.7143   34.5896 H       1  <0>         0.0233
     28 H4         62.9432   47.1110   32.9128 H       1  <0>         0.0305
     29 H5         62.2746   48.7511   33.2741 H       1  <0>         0.0305
     30 H6         56.6165   43.8678   29.8174 H       1  <0>         0.0311
     31 H7         57.9862   44.5909   28.8848 H       1  <0>         0.0311
     32 H8         56.6067   46.6521   28.5669 H       1  <0>         0.0328
     33 H9         55.8833   45.1836   27.8214 H       1  <0>         0.0328
     34 H10        65.5044   46.6487   34.8301 H       1  <0>         0.0350
     35 H11        65.2575   45.7116   36.3468 H       1  <0>         0.0350
     36 H12        60.9017   46.3719   30.5603 H       1  <0>         0.0350
     37 H13        60.2768   44.7496   30.0696 H       1  <0>         0.0350
     38 H14        65.3620   46.2292   32.2017 H       1  <0>         0.0350
     39 H15        66.0408   44.5606   32.2389 H       1  <0>         0.0350
     40 H16        61.8046   48.2536   27.0833 H       1  <0>         0.0350
     41 H17        61.3878   49.2790   28.5279 H       1  <0>         0.0350
     42 H18        64.6671   45.3093   27.6446 H       1  <0>         0.0350
     43 H19        63.1297   45.0845   28.5529 H       1  <0>         0.0350
     44 H20        63.5420   48.7274   35.2893 H       1  <0>         0.0569
     45 H21        57.0123   45.4236   31.6690 H       1  <0>         0.0569
     46 H22        62.8020   46.2305   36.2700 H       1  <0>         0.0572
     47 H23        58.8755   46.8854   31.5667 H       1  <0>         0.0572
     48 H24        64.8603   43.7573   35.0039 H       1  <0>         0.0572
     49 H25        59.6893   45.5786   27.9054 H       1  <0>         0.0572
     50 H26        63.1732   44.6365   33.0992 H       1  <0>         0.0572
     51 H27        59.3413   48.1380   27.9997 H       1  <0>         0.0572
     52 H28        63.6964   44.0940   30.7740 H       1  <0>         0.0572
     53 H29        62.6764   47.6620   29.9831 H       1  <0>         0.0572
     54 H30        65.7691   46.0801   29.8097 H       1  <0>         0.0572
     55 H31        64.2398   47.6960   27.4962 H       1  <0>         0.0572
@<TRIPOS>BOND
     1     1     2    1
     2     2    10    1
     3     3     4    1
     4     3    11    1
     5     4    22    1
     6     5    12    1
     7     5    14    1
     8     6    13    1
     9     6    15    1
    10     7    16    1
    11     7    18    1
    12     8    17    1
    13     8    19    1
    14     9    20    1
    15     9    21    1
    16    10    12    2
    17    11    13    2
    18    14    16    2
    19    15    17    2
    20    18    20    2
    21    19    21    2
    22    22    23    1
    23    22    24    2
    24     1    25    1
    25     1    26    1
    26     1    27    1
    27     2    28    1
    28     2    29    1
    29     3    30    1
    30     3    31    1
    31     4    32    1
    32     4    33    1
    33     5    34    1
    34     5    35    1
    35     6    36    1
    36     6    37    1
    37     7    38    1
    38     7    39    1
    39     8    40    1
    40     8    41    1
    41     9    42    1
    42     9    43    1
    43    10    44    1
    44    11    45    1
    45    12    46    1
    46    13    47    1
    47    14    48    1
    48    15    49    1
    49    16    50    1
    50    17    51    1
    51    18    52    1
    52    19    53    1
    53    20    54    1
    54    21    55    1
@<TRIPOS>SUBSTRUCTURE
     1 <0>         1 TEMP              0 ****  ****    0 ROOT

