
##########                                Name:        HXA_200_1MV9
##########                    Molecular_Weight:             327.487
##########                DOCK_Rotatable_Bonds:                  20
##########                       Formal_Charge:           -0.999301
##########                     HBond_Acceptors:                   2
##########                        HBond_Donors:                   0
##########                         Heavy_Atoms:                  24
##########                            HA_RMSDs:              16.718
##########                            HA_RMSDh:              16.432
##########                            HA_RMSDm:              15.023
##########                          Grid_Score:            2.331593
##########                     Grid_vdw_energy:          -16.696911
##########                      Grid_es_energy:           19.028503
##########           Internal_energy_repulsive:            8.008239

@<TRIPOS>MOLECULE
HXA_200_1MV9
 55 54 1 0 0
SMALL
USER_CHARGES


@<TRIPOS>ATOM
      1 C1         75.0983   44.8618   40.9968 C.3     1  <0>        -0.0618
      2 C2         76.2694   44.1747   40.2967 C.3     1  <0>        -0.0376
      3 C3         74.1585   50.6735   39.1145 C.3     1  <0>        -0.0297
      4 C4         75.0106   51.8965   38.7980 C.3     1  <0>        -0.0098
      5 C5         75.3006   40.9537   39.5137 C.3     1  <0>        -0.0165
      6 C6         73.9107   48.1482   37.2136 C.3     1  <0>        -0.0165
      7 C7         74.6385   42.5967   36.7017 C.3     1  <0>        -0.0165
      8 C8         76.2188   48.2658   34.6937 C.3     1  <0>        -0.0165
      9 C9         74.2092   45.3356   34.0013 C.3     1  <0>        -0.0165
     10 C10        76.4563   42.7568   40.7420 C.2     1  <0>        -0.0879
     11 C11        74.9608   49.4165   39.1952 C.2     1  <0>        -0.0873
     12 C12        75.4451   41.8758   40.6783 C.2     1  <0>        -0.0842
     13 C13        74.9712   48.4946   38.2144 C.2     1  <0>        -0.0842
     14 C14        74.0665   41.2801   38.7404 C.2     1  <0>        -0.0839
     15 C15        74.0776   48.8937   35.9301 C.2     1  <0>        -0.0839
     16 C16        74.0141   42.4266   38.0505 C.2     1  <0>        -0.0839
     17 C17        75.2618   49.1876   35.3837 C.2     1  <0>        -0.0839
     18 C18        73.9808   43.7138   35.9420 C.2     1  <0>        -0.0839
     19 C19        75.9705   46.8013   34.8620 C.2     1  <0>        -0.0839
     20 C20        74.4636   44.0489   34.7330 C.2     1  <0>        -0.0839
     21 C21        75.4866   46.0990   33.8254 C.2     1  <0>        -0.0839
     22 C22        75.9589   52.1819   39.9453 C.2     1  <0>         0.0420
     23 O1         77.1671   52.5261   39.4747 O.co2   1  <0>        -0.5498
     24 O2         75.6905   52.0847   41.1037 O.co2   1  <0>        -0.5498
     25 H1         75.0084   45.8958   40.6327 H       1  <0>         0.0233
     26 H2         74.1691   44.3146   40.7792 H       1  <0>         0.0233
     27 H3         75.2738   44.8694   42.0826 H       1  <0>         0.0233
     28 H4         76.0767   44.1764   39.2137 H       1  <0>         0.0305
     29 H5         77.1882   44.7348   40.5253 H       1  <0>         0.0305
     30 H6         73.6670   50.8346   40.0854 H       1  <0>         0.0311
     31 H7         73.4093   50.5568   38.3177 H       1  <0>         0.0311
     32 H8         75.5932   51.7062   37.8846 H       1  <0>         0.0328
     33 H9         74.3546   52.7661   38.6447 H       1  <0>         0.0328
     34 H10        76.1767   41.0614   38.8572 H       1  <0>         0.0350
     35 H11        75.2342   39.9184   39.8792 H       1  <0>         0.0350
     36 H12        73.9682   47.0702   37.0020 H       1  <0>         0.0350
     37 H13        72.9297   48.4029   37.6411 H       1  <0>         0.0350
     38 H14        75.7059   42.8303   36.8286 H       1  <0>         0.0350
     39 H15        74.5236   41.6617   36.1339 H       1  <0>         0.0350
     40 H16        76.1620   48.4840   33.6171 H       1  <0>         0.0350
     41 H17        77.2204   48.4747   35.0975 H       1  <0>         0.0350
     42 H18        73.7844   45.1103   33.0120 H       1  <0>         0.0350
     43 H19        73.5009   45.9461   34.5805 H       1  <0>         0.0350
     44 H20        77.4170   42.4389   41.1193 H       1  <0>         0.0569
     45 H21        75.5579   49.2397   40.0776 H       1  <0>         0.0569
     46 H22        74.7252   41.8338   41.4823 H       1  <0>         0.0572
     47 H23        75.8808   47.9175   38.1370 H       1  <0>         0.0572
     48 H24        73.2269   40.6007   38.7374 H       1  <0>         0.0572
     49 H25        73.1865   49.2153   35.4114 H       1  <0>         0.0572
     50 H26        73.4970   43.2677   38.4883 H       1  <0>         0.0572
     51 H27        75.5670   50.2216   35.4481 H       1  <0>         0.0572
     52 H28        73.1345   44.2385   36.3602 H       1  <0>         0.0572
     53 H29        76.1774   46.3154   35.8041 H       1  <0>         0.0572
     54 H30        75.0946   43.3236   34.2409 H       1  <0>         0.0572
     55 H31        76.0093   46.0843   32.8804 H       1  <0>         0.0572
@<TRIPOS>BOND
     1     1     2    1
     2     2    10    1
     3     3     4    1
     4     3    11    1
     5     4    22    1
     6     5    12    1
     7     5    14    1
     8     6    13    1
     9     6    15    1
    10     7    16    1
    11     7    18    1
    12     8    17    1
    13     8    19    1
    14     9    20    1
    15     9    21    1
    16    10    12    2
    17    11    13    2
    18    14    16    2
    19    15    17    2
    20    18    20    2
    21    19    21    2
    22    22    23    1
    23    22    24    2
    24     1    25    1
    25     1    26    1
    26     1    27    1
    27     2    28    1
    28     2    29    1
    29     3    30    1
    30     3    31    1
    31     4    32    1
    32     4    33    1
    33     5    34    1
    34     5    35    1
    35     6    36    1
    36     6    37    1
    37     7    38    1
    38     7    39    1
    39     8    40    1
    40     8    41    1
    41     9    42    1
    42     9    43    1
    43    10    44    1
    44    11    45    1
    45    12    46    1
    46    13    47    1
    47    14    48    1
    48    15    49    1
    49    16    50    1
    50    17    51    1
    51    18    52    1
    52    19    53    1
    53    20    54    1
    54    21    55    1
@<TRIPOS>SUBSTRUCTURE
     1 <0>         1 TEMP              0 ****  ****    0 ROOT

