
##########                                Name:        HXA_200_1MV9
##########                    Molecular_Weight:             327.487
##########                DOCK_Rotatable_Bonds:                  20
##########                       Formal_Charge:           -0.999301
##########                     HBond_Acceptors:                   2
##########                        HBond_Donors:                   0
##########                         Heavy_Atoms:                  24
##########                            HA_RMSDs:              18.255
##########                            HA_RMSDh:              17.487
##########                            HA_RMSDm:              15.490
##########                          Grid_Score:           -7.997885
##########                     Grid_vdw_energy:          -21.327824
##########                      Grid_es_energy:           13.329939
##########           Internal_energy_repulsive:            7.575531

@<TRIPOS>MOLECULE
HXA_200_1MV9
 55 54 1 0 0
SMALL
USER_CHARGES


@<TRIPOS>ATOM
      1 C1         69.1085   35.4268   36.6572 C.3     1  <0>        -0.0618
      2 C2         68.8470   36.3153   37.8722 C.3     1  <0>        -0.0376
      3 C3         76.6967   35.0500   36.6287 C.3     1  <0>        -0.0297
      4 C4         78.0263   34.4341   36.2107 C.3     1  <0>        -0.0098
      5 C5         69.4930   35.2615   41.0969 C.3     1  <0>        -0.0165
      6 C6         73.9242   36.3670   35.8341 C.3     1  <0>        -0.0165
      7 C7         72.0044   37.3936   40.6593 C.3     1  <0>        -0.0165
      8 C8         72.1116   39.0974   34.8596 C.3     1  <0>        -0.0165
      9 C9         73.4638   39.9189   38.1154 C.3     1  <0>        -0.0165
     10 C10        68.2150   35.5694   39.0070 C.2     1  <0>        -0.0879
     11 C11        75.5226   34.3550   36.0214 C.2     1  <0>        -0.0873
     12 C12        68.9473   34.7689   39.7980 C.2     1  <0>        -0.0842
     13 C13        74.4784   35.0177   35.4899 C.2     1  <0>        -0.0842
     14 C14        70.9822   35.1639   41.1072 C.2     1  <0>        -0.0839
     15 C15        73.8952   37.2850   34.6561 C.2     1  <0>        -0.0839
     16 C16        71.6936   35.9723   40.3111 C.2     1  <0>        -0.0839
     17 C17        72.8005   37.9252   34.2329 C.2     1  <0>        -0.0839
     18 C18        72.9877   37.9823   39.6876 C.2     1  <0>        -0.0839
     19 C19        71.9910   39.0799   36.3495 C.2     1  <0>        -0.0839
     20 C20        72.8468   39.2676   39.3199 C.2     1  <0>        -0.0839
     21 C21        72.4313   40.1362   37.0514 C.2     1  <0>        -0.0839
     22 C22        78.2315   33.1089   36.9168 C.2     1  <0>         0.0420
     23 O1         79.1449   32.3725   36.2664 O.co2   1  <0>        -0.5498
     24 O2         77.6460   32.7477   37.8916 O.co2   1  <0>        -0.5498
     25 H1         69.5713   36.0244   35.8582 H       1  <0>         0.0233
     26 H2         69.7854   34.6076   36.9412 H       1  <0>         0.0233
     27 H3         68.1568   35.0083   36.2977 H       1  <0>         0.0233
     28 H4         69.8081   36.7241   38.2172 H       1  <0>         0.0305
     29 H5         68.1694   37.1273   37.5697 H       1  <0>         0.0305
     30 H6         76.6119   34.9829   37.7234 H       1  <0>         0.0311
     31 H7         76.6839   36.1011   36.3046 H       1  <0>         0.0311
     32 H8         78.0238   34.2691   35.1232 H       1  <0>         0.0328
     33 H9         78.8440   35.1190   36.4797 H       1  <0>         0.0328
     34 H10        69.1993   36.3124   41.2364 H       1  <0>         0.0350
     35 H11        69.0855   34.6492   41.9149 H       1  <0>         0.0350
     36 H12        72.8960   36.2390   36.2032 H       1  <0>         0.0350
     37 H13        74.5576   36.8170   36.6128 H       1  <0>         0.0350
     38 H14        71.0750   37.9811   40.6278 H       1  <0>         0.0350
     39 H15        72.4363   37.4280   41.6703 H       1  <0>         0.0350
     40 H16        72.6868   39.9954   34.5900 H       1  <0>         0.0350
     41 H17        71.0909   39.1319   34.4508 H       1  <0>         0.0350
     42 H18        73.8896   40.8898   38.4085 H       1  <0>         0.0350
     43 H19        74.2577   39.2681   37.7202 H       1  <0>         0.0350
     44 H20        67.1563   35.6769   39.1914 H       1  <0>         0.0569
     45 H21        75.5108   33.2751   36.0082 H       1  <0>         0.0569
     46 H22        69.1446   33.7529   39.4895 H       1  <0>         0.0572
     47 H23        73.9623   34.4989   34.6957 H       1  <0>         0.0572
     48 H24        71.4795   34.4510   41.7481 H       1  <0>         0.0572
     49 H25        74.8154   37.4413   34.1128 H       1  <0>         0.0572
     50 H26        72.0599   35.5798   39.3740 H       1  <0>         0.0572
     51 H27        72.3566   37.5489   33.3231 H       1  <0>         0.0572
     52 H28        73.7941   37.3829   39.2913 H       1  <0>         0.0572
     53 H29        71.5561   38.2298   36.8540 H       1  <0>         0.0572
     54 H30        72.2311   39.8914   39.9509 H       1  <0>         0.0572
     55 H31        72.0477   41.1260   36.8525 H       1  <0>         0.0572
@<TRIPOS>BOND
     1     1     2    1
     2     2    10    1
     3     3     4    1
     4     3    11    1
     5     4    22    1
     6     5    12    1
     7     5    14    1
     8     6    13    1
     9     6    15    1
    10     7    16    1
    11     7    18    1
    12     8    17    1
    13     8    19    1
    14     9    20    1
    15     9    21    1
    16    10    12    2
    17    11    13    2
    18    14    16    2
    19    15    17    2
    20    18    20    2
    21    19    21    2
    22    22    23    1
    23    22    24    2
    24     1    25    1
    25     1    26    1
    26     1    27    1
    27     2    28    1
    28     2    29    1
    29     3    30    1
    30     3    31    1
    31     4    32    1
    32     4    33    1
    33     5    34    1
    34     5    35    1
    35     6    36    1
    36     6    37    1
    37     7    38    1
    38     7    39    1
    39     8    40    1
    40     8    41    1
    41     9    42    1
    42     9    43    1
    43    10    44    1
    44    11    45    1
    45    12    46    1
    46    13    47    1
    47    14    48    1
    48    15    49    1
    49    16    50    1
    50    17    51    1
    51    18    52    1
    52    19    53    1
    53    20    54    1
    54    21    55    1
@<TRIPOS>SUBSTRUCTURE
     1 <0>         1 TEMP              0 ****  ****    0 ROOT

