
##########                                Name:        HXA_200_1MV9
##########                    Molecular_Weight:             327.487
##########                DOCK_Rotatable_Bonds:                  20
##########                       Formal_Charge:           -0.999301
##########                     HBond_Acceptors:                   2
##########                        HBond_Donors:                   0
##########                         Heavy_Atoms:                  24
##########                            HA_RMSDs:               0.571
##########                            HA_RMSDh:               0.571
##########                            HA_RMSDm:               0.571
##########                          Grid_Score:           10.764732
##########                     Grid_vdw_energy:          -45.928364
##########                      Grid_es_energy:           56.693096
##########           Internal_energy_repulsive:           12.723591

@<TRIPOS>MOLECULE
HXA_200_1MV9
 55 54 1 0 0
SMALL
USER_CHARGES


@<TRIPOS>ATOM
      1 C1         60.9428   47.4667   34.6430 C.3     1  <0>        -0.0618
      2 C2         62.2555   47.6196   33.8767 C.3     1  <0>        -0.0376
      3 C3         57.3139   44.8080   29.3025 C.3     1  <0>        -0.0297
      4 C4         56.0903   45.6424   28.9443 C.3     1  <0>        -0.0098
      5 C5         65.0457   45.8508   34.8830 C.3     1  <0>        -0.0165
      6 C6         60.2543   45.8887   29.7909 C.3     1  <0>        -0.0165
      7 C7         64.9349   44.8201   31.7254 C.3     1  <0>        -0.0165
      8 C8         61.6873   48.5338   28.1659 C.3     1  <0>        -0.0165
      9 C9         63.6185   45.4721   28.1449 C.3     1  <0>        -0.0165
     10 C10        63.4434   47.7264   34.7828 C.2     1  <0>        -0.0879
     11 C11        57.9132   45.1963   30.6141 C.2     1  <0>        -0.0873
     12 C12        63.9121   46.6500   35.4341 C.2     1  <0>        -0.0842
     13 C13        59.0736   45.8713   30.7137 C.2     1  <0>        -0.0842
     14 C14        64.5348   44.6376   34.1797 C.2     1  <0>        -0.0839
     15 C15        59.9886   46.6689   28.5452 C.2     1  <0>        -0.0839
     16 C16        64.0565   44.7592   32.9348 C.2     1  <0>        -0.0839
     17 C17        60.3244   47.9523   28.3799 C.2     1  <0>        -0.0839
     18 C18        64.1387   44.5961   30.4710 C.2     1  <0>        -0.0839
     19 C19        62.8408   47.7313   28.6762 C.2     1  <0>        -0.0839
     20 C20        64.4816   45.2649   29.3565 C.2     1  <0>        -0.0839
     21 C21        63.5051   46.9320   27.8266 C.2     1  <0>        -0.0839
     22 C22        54.9396   45.3042   29.8707 C.2     1  <0>         0.0420
     23 O1         54.2042   46.3988   30.1169 O.co2   1  <0>        -0.5498
     24 O2         54.7283   44.2305   30.3461 O.co2   1  <0>        -0.5498
     25 H1         60.1081   47.3931   33.9304 H       1  <0>         0.0233
     26 H2         60.9814   46.5553   35.2577 H       1  <0>         0.0233
     27 H3         60.7939   48.3415   35.2930 H       1  <0>         0.0233
     28 H4         62.3874   46.7372   33.2332 H       1  <0>         0.0305
     29 H5         62.1986   48.5346   33.2687 H       1  <0>         0.0305
     30 H6         57.0100   43.7523   29.3585 H       1  <0>         0.0311
     31 H7         58.0724   44.9498   28.5185 H       1  <0>         0.0311
     32 H8         56.3364   46.7096   29.0462 H       1  <0>         0.0328
     33 H9         55.7957   45.4275   27.9064 H       1  <0>         0.0328
     34 H10        65.6108   46.4697   34.1704 H       1  <0>         0.0350
     35 H11        65.7027   45.5395   35.7085 H       1  <0>         0.0350
     36 H12        61.1032   46.3492   30.3176 H       1  <0>         0.0350
     37 H13        60.4942   44.8525   29.5102 H       1  <0>         0.0350
     38 H14        65.4080   45.8120   31.6765 H       1  <0>         0.0350
     39 H15        65.7061   44.0396   31.8038 H       1  <0>         0.0350
     40 H16        61.8255   48.6488   27.0807 H       1  <0>         0.0350
     41 H17        61.7120   49.5044   28.6828 H       1  <0>         0.0350
     42 H18        64.0683   44.9498   27.2878 H       1  <0>         0.0350
     43 H19        62.6152   45.0671   28.3431 H       1  <0>         0.0350
     44 H20        63.9293   48.6820   34.9140 H       1  <0>         0.0569
     45 H21        57.3937   44.9240   31.5210 H       1  <0>         0.0569
     46 H22        63.4618   46.3579   36.3713 H       1  <0>         0.0572
     47 H23        59.1679   46.4943   31.5909 H       1  <0>         0.0572
     48 H24        64.5505   43.6746   34.6683 H       1  <0>         0.0572
     49 H25        59.4946   46.1651   27.7275 H       1  <0>         0.0572
     50 H26        62.9868   44.8160   32.7976 H       1  <0>         0.0572
     51 H27        59.5087   48.6598   28.4037 H       1  <0>         0.0572
     52 H28        63.3052   43.9094   30.4650 H       1  <0>         0.0572
     53 H29        63.1353   47.7938   29.7134 H       1  <0>         0.0572
     54 H30        65.4722   45.6942   29.3297 H       1  <0>         0.0572
     55 H31        63.9505   47.3344   26.9287 H       1  <0>         0.0572
@<TRIPOS>BOND
     1     1     2    1
     2     2    10    1
     3     3     4    1
     4     3    11    1
     5     4    22    1
     6     5    12    1
     7     5    14    1
     8     6    13    1
     9     6    15    1
    10     7    16    1
    11     7    18    1
    12     8    17    1
    13     8    19    1
    14     9    20    1
    15     9    21    1
    16    10    12    2
    17    11    13    2
    18    14    16    2
    19    15    17    2
    20    18    20    2
    21    19    21    2
    22    22    23    1
    23    22    24    2
    24     1    25    1
    25     1    26    1
    26     1    27    1
    27     2    28    1
    28     2    29    1
    29     3    30    1
    30     3    31    1
    31     4    32    1
    32     4    33    1
    33     5    34    1
    34     5    35    1
    35     6    36    1
    36     6    37    1
    37     7    38    1
    38     7    39    1
    39     8    40    1
    40     8    41    1
    41     9    42    1
    42     9    43    1
    43    10    44    1
    44    11    45    1
    45    12    46    1
    46    13    47    1
    47    14    48    1
    48    15    49    1
    49    16    50    1
    50    17    51    1
    51    18    52    1
    52    19    53    1
    53    20    54    1
    54    21    55    1
@<TRIPOS>SUBSTRUCTURE
     1 <0>         1 TEMP              0 ****  ****    0 ROOT

