
##########                                Name:        IMS_700_2OYU
##########                    Molecular_Weight:             428.915
##########                DOCK_Rotatable_Bonds:                  10
##########                       Formal_Charge:        -0.000100031
##########                     HBond_Acceptors:                   7
##########                        HBond_Donors:                   2
##########                         Heavy_Atoms:                  30
##########                            HA_RMSDs:               0.279
##########                            HA_RMSDh:               0.279
##########                            HA_RMSDm:               0.279
##########                          Grid_Score:          205.671997
##########                     Grid_vdw_energy:          205.941666
##########                      Grid_es_energy:           -0.269670
##########           Internal_energy_repulsive:           50.739494

@<TRIPOS>MOLECULE
IMS_700_2OYU
 55 57 1 0 0
SMALL
USER_CHARGES


@<TRIPOS>ATOM
      1 C1         20.6704   48.2418    5.2757 C.3     1  <0>        -0.0635
      2 C2         18.9471   47.8652   11.1514 C.3     1  <0>        -0.0256
      3 C3         25.4864   52.9587   12.4202 C.3     1  <0>         0.0430
      4 C4         19.0441   47.5403   15.8953 C.ar    1  <0>        -0.0482
      5 C5         17.7803   48.4483   14.0486 C.ar    1  <0>        -0.0482
      6 C6         17.9082   47.5641   16.6669 C.ar    1  <0>        -0.0427
      7 C7         16.6403   48.4680   14.8229 C.ar    1  <0>        -0.0427
      8 C8         23.1735   51.3198   13.7834 C.ar    1  <0>        -0.0299
      9 C9         22.3076   50.2438   14.0046 C.ar    1  <0>        -0.0369
     10 C10        22.3778   51.5113   11.5432 C.ar    1  <0>        -0.0224
     11 C11        19.8972   49.5290    5.1718 C.3     1  <0>        -0.0352
     12 C12        20.3335   50.2788    9.4923 C.3     1  <0>         0.0512
     13 C13        17.9087   48.3000    6.1495 C.3     1  <0>         0.0625
     14 C14        19.9937   48.8115   11.6334 C.2     1  <0>         0.0199
     15 C15        18.9627   48.0014   14.6028 C.ar    1  <0>         0.0377
     16 C16        16.7122   48.0223   16.1336 C.ar    1  <0>         0.0410
     17 C17        23.2215   51.9595   12.5538 C.ar    1  <0>         0.0765
     18 C18        21.4720   49.7947   12.9903 C.ar    1  <0>         0.0489
     19 C19        21.5108   50.4382   11.7675 C.ar    1  <0>         0.0043
     20 C20        20.5940   49.8273   10.9082 C.2     1  <0>        -0.0123
     21 C21        18.7198   49.6000    6.1374 C.3     1  <0>         0.0459
     22 C22        19.9621   49.2951    8.4068 C.2     1  <0>         0.2177
     23 C23        20.2134   47.9425   13.8282 C.2     1  <0>         0.2550
     24 N1         19.3056   49.9510    7.4364 N.am    1  <0>        -0.3100
     25 N2         20.5429   48.8498   12.8460 N.am    1  <0>        -0.2394
     26 O1         16.8153   48.4112    5.2099 O.3     1  <0>        -0.3932
     27 O2         20.2501   48.1116    8.4546 O.2     1  <0>        -0.2755
     28 O3         20.9270   46.9971   14.1267 O.2     1  <0>        -0.2693
     29 O4         24.0613   53.0324   12.3365 O.3     1  <0>        -0.3479
     30 Cl1        15.4938   48.0215   17.0142 Cl      1  <0>        -0.0835
     31 H1         21.5024   48.2540    4.5563 H       1  <0>         0.0230
     32 H2         21.0691   48.1351    6.2953 H       1  <0>         0.0230
     33 H3         20.0046   47.3952    5.0517 H       1  <0>         0.0230
     34 H4         19.4278   46.9746   10.7204 H       1  <0>         0.0290
     35 H5         18.3081   47.5648   11.9948 H       1  <0>         0.0290
     36 H6         18.3330   48.3581   10.3833 H       1  <0>         0.0290
     37 H7         25.9186   53.9470   12.2043 H       1  <0>         0.0529
     38 H8         25.7782   52.6445   13.4332 H       1  <0>         0.0529
     39 H9         25.8592   52.2277   11.6878 H       1  <0>         0.0529
     40 H10        19.9768   47.1691   16.2935 H       1  <0>         0.0625
     41 H11        17.7489   48.7784   13.0209 H       1  <0>         0.0625
     42 H12        17.9462   47.2253   17.6916 H       1  <0>         0.0632
     43 H13        15.7062   48.8250   14.4151 H       1  <0>         0.0632
     44 H14        23.8153   51.6581   14.5834 H       1  <0>         0.0644
     45 H15        22.2887   49.7595   14.9698 H       1  <0>         0.0637
     46 H16        22.3926   51.9959   10.5781 H       1  <0>         0.0650
     47 H17        20.5802   50.3609    5.3990 H       1  <0>         0.0281
     48 H18        19.5081   49.6157    4.1466 H       1  <0>         0.0281
     49 H19        19.4909   50.9833    9.5556 H       1  <0>         0.0408
     50 H20        21.2666   50.7541    9.1557 H       1  <0>         0.0408
     51 H21        18.5570   47.4592    5.8619 H       1  <0>         0.0575
     52 H22        17.5096   48.1249    7.1595 H       1  <0>         0.0575
     53 H23        17.9792   50.3563    5.8380 H       1  <0>         0.0521
     54 H24        19.1860   50.9199    7.6527 H       1  <0>         0.1491
     55 H25        16.2026   47.6990    5.3507 H       1  <0>         0.2095
@<TRIPOS>BOND
     1     1    11    1
     2     2    14    1
     3     3    29    1
     4     4     6   ar
     5     4    15   ar
     6     5     7   ar
     7     5    15   ar
     8     6    16   ar
     9     7    16   ar
    10     8     9   ar
    11     8    17   ar
    12     9    18   ar
    13    10    17   ar
    14    10    19   ar
    15    11    21    1
    16    12    20    1
    17    12    22    1
    18    13    21    1
    19    13    26    1
    20    14    20    2
    21    14    25    1
    22    15    23    1
    23    16    30    1
    24    17    29    1
    25    18    19   ar
    26    18    25    1
    27    19    20    1
    28    21    24    1
    29    22    24   am
    30    22    27    2
    31    23    25   am
    32    23    28    2
    33     1    31    1
    34     1    32    1
    35     1    33    1
    36     2    34    1
    37     2    35    1
    38     2    36    1
    39     3    37    1
    40     3    38    1
    41     3    39    1
    42     4    40    1
    43     5    41    1
    44     6    42    1
    45     7    43    1
    46     8    44    1
    47     9    45    1
    48    10    46    1
    49    11    47    1
    50    11    48    1
    51    12    49    1
    52    12    50    1
    53    13    51    1
    54    13    52    1
    55    21    53    1
    56    24    54    1
    57    26    55    1
@<TRIPOS>SUBSTRUCTURE
     1 <0>         1 TEMP              0 ****  ****    0 ROOT

