
##########                                Name:        IMS_700_2OYU
##########                    Molecular_Weight:             428.915
##########                DOCK_Rotatable_Bonds:                  10
##########                       Formal_Charge:        -0.000100031
##########                     HBond_Acceptors:                   7
##########                        HBond_Donors:                   2
##########                         Heavy_Atoms:                  30
##########                            HA_RMSDs:              14.777
##########                            HA_RMSDh:              14.235
##########                            HA_RMSDm:              12.966
##########                          Grid_Score:          -40.947590
##########                     Grid_vdw_energy:          -39.627560
##########                      Grid_es_energy:           -1.320030
##########           Internal_energy_repulsive:           21.223316

@<TRIPOS>MOLECULE
IMS_700_2OYU
 55 57 1 0 0
SMALL
USER_CHARGES


@<TRIPOS>ATOM
      1 C1          8.8121   53.5973    7.5472 C.3     1  <0>        -0.0635
      2 C2         10.8211   48.7548    3.7093 C.3     1  <0>        -0.0256
      3 C3         10.2086   54.8762   -1.9436 C.3     1  <0>         0.0430
      4 C4         12.4778   46.1053    0.2717 C.ar    1  <0>        -0.0482
      5 C5         13.3858   47.5461    1.9838 C.ar    1  <0>        -0.0482
      6 C6         13.5634   45.2760    0.4127 C.ar    1  <0>        -0.0427
      7 C7         14.4728   46.7109    2.1270 C.ar    1  <0>        -0.0427
      8 C8         11.3684   51.9584   -1.4055 C.ar    1  <0>        -0.0299
      9 C9         11.3643   50.6571   -0.8926 C.ar    1  <0>        -0.0369
     10 C10        11.0156   52.8327    0.7853 C.ar    1  <0>        -0.0224
     11 C11        10.0485   52.9321    8.0898 C.3     1  <0>        -0.0352
     12 C12        10.6786   51.9908    3.7989 C.3     1  <0>         0.0512
     13 C13         9.0899   50.5999    7.8399 C.3     1  <0>         0.0625
     14 C14        10.9378   49.6988    2.5611 C.2     1  <0>         0.0199
     15 C15        12.4185   47.2376    1.0489 C.ar    1  <0>         0.0377
     16 C16        14.5540   45.5746    1.3369 C.ar    1  <0>         0.0410
     17 C17        11.1897   53.0557   -0.5764 C.ar    1  <0>         0.0765
     18 C18        11.1826   50.4385    0.4668 C.ar    1  <0>         0.0489
     19 C19        11.0154   51.5318    1.2962 C.ar    1  <0>         0.0043
     20 C20        10.8550   51.0804    2.6086 C.2     1  <0>        -0.0123
     21 C21        10.2679   51.5303    7.5325 C.3     1  <0>         0.0459
     22 C22         9.8069   51.5982    4.9693 C.2     1  <0>         0.2177
     23 C23        11.2266   48.0795    0.8537 C.2     1  <0>         0.2550
     24 N1         10.5219   51.7193    6.0994 N.am    1  <0>        -0.3100
     25 N2         11.1395   49.3853    1.2825 N.am    1  <0>        -0.2394
     26 O1          9.0890   50.2815    9.2504 O.3     1  <0>        -0.3932
     27 O2          8.6458   51.2483    4.8463 O.2     1  <0>        -0.2755
     28 O3         10.3098   47.5023    0.2894 O.2     1  <0>        -0.2693
     29 O4         11.2107   54.3419   -1.0753 O.3     1  <0>        -0.3479
     30 Cl1        15.7188   44.6324    1.4612 Cl      1  <0>        -0.0835
     31 H1          8.7121   54.6007    7.9867 H       1  <0>         0.0230
     32 H2          8.8919   53.6826    6.4534 H       1  <0>         0.0230
     33 H3          7.9286   52.9946    7.8047 H       1  <0>         0.0230
     34 H4          9.7677   48.4673    3.8426 H       1  <0>         0.0290
     35 H5         11.4235   47.8567    3.5081 H       1  <0>         0.0290
     36 H6         11.1862   49.2439    4.6244 H       1  <0>         0.0290
     37 H7         10.4582   55.9175   -2.1954 H       1  <0>         0.0529
     38 H8         10.1646   54.2768   -2.8649 H       1  <0>         0.0529
     39 H9          9.2318   54.8452   -1.4388 H       1  <0>         0.0529
     40 H10        11.6914   45.8740   -0.4315 H       1  <0>         0.0625
     41 H11        13.2922   48.4311    2.5956 H       1  <0>         0.0625
     42 H12        13.6460   44.3888   -0.1976 H       1  <0>         0.0632
     43 H13        15.2486   46.9379    2.8432 H       1  <0>         0.0632
     44 H14        11.5130   52.1113   -2.4648 H       1  <0>         0.0644
     45 H15        11.5033   49.8175   -1.5576 H       1  <0>         0.0637
     46 H16        10.8795   53.6708    1.4528 H       1  <0>         0.0650
     47 H17        10.9184   53.5498    7.8218 H       1  <0>         0.0281
     48 H18         9.9482   52.8569    9.1826 H       1  <0>         0.0281
     49 H19        11.6868   52.1348    4.2146 H       1  <0>         0.0408
     50 H20        10.2413   52.9185    3.4011 H       1  <0>         0.0408
     51 H21         8.1468   51.1005    7.5751 H       1  <0>         0.0575
     52 H22         9.1894   49.6744    7.2538 H       1  <0>         0.0575
     53 H23        11.1209   51.0216    8.0055 H       1  <0>         0.0521
     54 H24        11.4614   52.0108    5.9199 H       1  <0>         0.1491
     55 H25         8.7885   49.3888    9.3738 H       1  <0>         0.2095
@<TRIPOS>BOND
     1     1    11    1
     2     2    14    1
     3     3    29    1
     4     4     6   ar
     5     4    15   ar
     6     5     7   ar
     7     5    15   ar
     8     6    16   ar
     9     7    16   ar
    10     8     9   ar
    11     8    17   ar
    12     9    18   ar
    13    10    17   ar
    14    10    19   ar
    15    11    21    1
    16    12    20    1
    17    12    22    1
    18    13    21    1
    19    13    26    1
    20    14    20    2
    21    14    25    1
    22    15    23    1
    23    16    30    1
    24    17    29    1
    25    18    19   ar
    26    18    25    1
    27    19    20    1
    28    21    24    1
    29    22    24   am
    30    22    27    2
    31    23    25   am
    32    23    28    2
    33     1    31    1
    34     1    32    1
    35     1    33    1
    36     2    34    1
    37     2    35    1
    38     2    36    1
    39     3    37    1
    40     3    38    1
    41     3    39    1
    42     4    40    1
    43     5    41    1
    44     6    42    1
    45     7    43    1
    46     8    44    1
    47     9    45    1
    48    10    46    1
    49    11    47    1
    50    11    48    1
    51    12    49    1
    52    12    50    1
    53    13    51    1
    54    13    52    1
    55    21    53    1
    56    24    54    1
    57    26    55    1
@<TRIPOS>SUBSTRUCTURE
     1 <0>         1 TEMP              0 ****  ****    0 ROOT

