
##########                                Name:        IMS_700_2OYU
##########                    Molecular_Weight:             428.915
##########                DOCK_Rotatable_Bonds:                  10
##########                       Formal_Charge:        -0.000100031
##########                     HBond_Acceptors:                   7
##########                        HBond_Donors:                   2
##########                         Heavy_Atoms:                  30
##########                            HA_RMSDs:               0.354
##########                            HA_RMSDh:               0.354
##########                            HA_RMSDm:               0.354
##########                          Grid_Score:          214.064758
##########                     Grid_vdw_energy:          214.935852
##########                      Grid_es_energy:           -0.871099
##########           Internal_energy_repulsive:           42.989819

@<TRIPOS>MOLECULE
IMS_700_2OYU
 55 57 1 0 0
SMALL
USER_CHARGES


@<TRIPOS>ATOM
      1 C1         20.8679   48.2313    5.3068 C.3     1  <0>        -0.0635
      2 C2         18.9201   47.7632   11.2943 C.3     1  <0>        -0.0256
      3 C3         24.8833   53.5660   12.8932 C.3     1  <0>         0.0430
      4 C4         18.8677   47.6142   16.0375 C.ar    1  <0>        -0.0482
      5 C5         17.6123   48.4058   14.1326 C.ar    1  <0>        -0.0482
      6 C6         17.7065   47.5750   16.7697 C.ar    1  <0>        -0.0427
      7 C7         16.4470   48.3623   14.8673 C.ar    1  <0>        -0.0427
      8 C8         22.7552   51.6650   13.9004 C.ar    1  <0>        -0.0299
      9 C9         21.9722   50.5314   14.1425 C.ar    1  <0>        -0.0369
     10 C10        22.0270   51.6941   11.6295 C.ar    1  <0>        -0.0224
     11 C11        19.9363   49.4113    5.2324 C.3     1  <0>        -0.0352
     12 C12        20.1641   50.2102    9.5723 C.3     1  <0>         0.0512
     13 C13        18.1522   47.8874    6.1891 C.3     1  <0>         0.0625
     14 C14        19.8684   48.8126   11.7660 C.2     1  <0>         0.0199
     15 C15        18.8014   48.0477   14.7347 C.ar    1  <0>         0.0377
     16 C16        16.5022   47.9439   16.1879 C.ar    1  <0>         0.0410
     17 C17        22.7950   52.2533   12.6452 C.ar    1  <0>         0.0765
     18 C18        21.2126   49.9718   13.1234 C.ar    1  <0>         0.0489
     19 C19        21.2426   50.5635   11.8745 C.ar    1  <0>         0.0043
     20 C20        20.4097   49.8426   11.0150 C.2     1  <0>        -0.0123
     21 C21        18.7498   49.2983    6.1828 C.3     1  <0>         0.0459
     22 C22        19.8738   49.1563    8.5288 C.2     1  <0>         0.2177
     23 C23        20.0795   48.0593   14.0041 C.2     1  <0>         0.2550
     24 N1         19.2565   49.7383    7.4880 N.am    1  <0>        -0.3100
     25 N2         20.3691   48.9480   12.9926 N.am    1  <0>        -0.2394
     26 O1         17.1854   47.7741    5.1198 O.3     1  <0>        -0.3932
     27 O2         20.1846   47.9852    8.6615 O.2     1  <0>        -0.2755
     28 O3         20.8565   47.1898   14.3680 O.2     1  <0>        -0.2693
     29 O4         23.5519   53.3818   12.4063 O.3     1  <0>        -0.3479
     30 Cl1        15.2565   47.8765   17.0266 Cl      1  <0>        -0.0835
     31 H1         21.6986   48.3743    4.6001 H       1  <0>         0.0230
     32 H2         21.2667   48.1430    6.3281 H       1  <0>         0.0230
     33 H3         20.3191   47.3141    5.0467 H       1  <0>         0.0230
     34 H4         19.4866   46.8978   10.9199 H       1  <0>         0.0290
     35 H5         18.2778   47.4473   12.1296 H       1  <0>         0.0290
     36 H6         18.2958   48.1704   10.4853 H       1  <0>         0.0290
     37 H7         25.2622   54.5452   12.5649 H       1  <0>         0.0529
     38 H8         24.8806   53.5239   13.9924 H       1  <0>         0.0529
     39 H9         25.5317   52.7706   12.4972 H       1  <0>         0.0529
     40 H10        19.8084   47.3124   16.4739 H       1  <0>         0.0625
     41 H11        17.5951   48.7162   13.0984 H       1  <0>         0.0625
     42 H12        17.7308   47.2562   17.8013 H       1  <0>         0.0632
     43 H13        15.5062   48.6496   14.4216 H       1  <0>         0.0632
     44 H14        23.3385   52.0891   14.7044 H       1  <0>         0.0644
     45 H15        21.9583   50.0889   15.1276 H       1  <0>         0.0637
     46 H16        22.0368   52.1366   10.6443 H       1  <0>         0.0650
     47 H17        20.5040   50.3160    5.4956 H       1  <0>         0.0281
     48 H18        19.5497   49.4811    4.2050 H       1  <0>         0.0281
     49 H19        19.2846   50.8708    9.5799 H       1  <0>         0.0408
     50 H20        21.0799   50.7176    9.2351 H       1  <0>         0.0408
     51 H21        18.9530   47.1479    6.0410 H       1  <0>         0.0575
     52 H22        17.6573   47.7017    7.1538 H       1  <0>         0.0575
     53 H23        17.9039   49.9289    5.8716 H       1  <0>         0.0521
     54 H24        19.1042   50.7149    7.6401 H       1  <0>         0.1491
     55 H25        16.7442   46.9349    5.1788 H       1  <0>         0.2095
@<TRIPOS>BOND
     1     1    11    1
     2     2    14    1
     3     3    29    1
     4     4     6   ar
     5     4    15   ar
     6     5     7   ar
     7     5    15   ar
     8     6    16   ar
     9     7    16   ar
    10     8     9   ar
    11     8    17   ar
    12     9    18   ar
    13    10    17   ar
    14    10    19   ar
    15    11    21    1
    16    12    20    1
    17    12    22    1
    18    13    21    1
    19    13    26    1
    20    14    20    2
    21    14    25    1
    22    15    23    1
    23    16    30    1
    24    17    29    1
    25    18    19   ar
    26    18    25    1
    27    19    20    1
    28    21    24    1
    29    22    24   am
    30    22    27    2
    31    23    25   am
    32    23    28    2
    33     1    31    1
    34     1    32    1
    35     1    33    1
    36     2    34    1
    37     2    35    1
    38     2    36    1
    39     3    37    1
    40     3    38    1
    41     3    39    1
    42     4    40    1
    43     5    41    1
    44     6    42    1
    45     7    43    1
    46     8    44    1
    47     9    45    1
    48    10    46    1
    49    11    47    1
    50    11    48    1
    51    12    49    1
    52    12    50    1
    53    13    51    1
    54    13    52    1
    55    21    53    1
    56    24    54    1
    57    26    55    1
@<TRIPOS>SUBSTRUCTURE
     1 <0>         1 TEMP              0 ****  ****    0 ROOT

