
##########                                Name:        IMS_700_2OYU
##########                    Molecular_Weight:             428.915
##########                DOCK_Rotatable_Bonds:                  10
##########                       Formal_Charge:        -0.000100031
##########                     HBond_Acceptors:                   7
##########                        HBond_Donors:                   2
##########                         Heavy_Atoms:                  30
##########                            HA_RMSDs:               0.305
##########                            HA_RMSDh:               0.305
##########                            HA_RMSDm:               0.305
##########                          Grid_Score:          202.968048
##########                     Grid_vdw_energy:          203.248230
##########                      Grid_es_energy:           -0.280186
##########           Internal_energy_repulsive:           30.549459

@<TRIPOS>MOLECULE
IMS_700_2OYU
 55 57 1 0 0
SMALL
USER_CHARGES


@<TRIPOS>ATOM
      1 C1         20.8682   49.0864    5.3990 C.3     1  <0>        -0.0635
      2 C2         18.9899   47.6562   11.4626 C.3     1  <0>        -0.0256
      3 C3         25.2853   53.1028   12.5775 C.3     1  <0>         0.0430
      4 C4         19.1244   47.3565   16.1751 C.ar    1  <0>        -0.0482
      5 C5         17.8468   48.3599   14.3882 C.ar    1  <0>        -0.0482
      6 C6         17.9948   47.3410   16.9560 C.ar    1  <0>        -0.0427
      7 C7         16.7130   48.3401   15.1717 C.ar    1  <0>        -0.0427
      8 C8         23.0710   51.3774   13.9570 C.ar    1  <0>        -0.0299
      9 C9         22.2601   50.2674   14.2156 C.ar    1  <0>        -0.0369
     10 C10        22.2449   51.4714   11.7216 C.ar    1  <0>        -0.0224
     11 C11        19.5373   49.7878    5.3493 C.3     1  <0>        -0.0352
     12 C12        20.2421   50.0888    9.7262 C.3     1  <0>         0.0512
     13 C13        18.2757   47.8092    6.3055 C.3     1  <0>         0.0625
     14 C14        19.9945   48.6639   11.9082 C.2     1  <0>         0.0199
     15 C15        19.0331   47.8841   14.9089 C.ar    1  <0>         0.0377
     16 C16        16.7950   47.8269   16.4569 C.ar    1  <0>         0.0410
     17 C17        23.0760   51.9860   12.7108 C.ar    1  <0>         0.0765
     18 C18        21.4371   49.7522   13.2227 C.ar    1  <0>         0.0489
     19 C19        21.4328   50.3643   11.9832 C.ar    1  <0>         0.0043
     20 C20        20.5380   49.6878   11.1504 C.2     1  <0>        -0.0123
     21 C21        18.5675   49.3088    6.4235 C.3     1  <0>         0.0459
     22 C22        19.8305   49.0692    8.6894 C.2     1  <0>         0.2177
     23 C23        20.2774   47.8646   14.1222 C.2     1  <0>         0.2550
     24 N1         19.1793   49.6999    7.6989 N.am    1  <0>        -0.3100
     25 N2         20.5532   48.7605   13.1133 N.am    1  <0>        -0.2394
     26 O1         17.2069   47.6048    5.3533 O.3     1  <0>        -0.3932
     27 O2         20.0873   47.8815    8.7857 O.2     1  <0>        -0.2755
     28 O3         21.0386   46.9627   14.4371 O.2     1  <0>        -0.2693
     29 O4         23.8609   53.0918   12.4565 O.3     1  <0>        -0.3479
     30 Cl1        15.5837   47.7812   17.3461 Cl      1  <0>        -0.0835
     31 H1         21.5185   49.4760    4.6020 H       1  <0>         0.0230
     32 H2         21.3399   49.2644    6.3767 H       1  <0>         0.0230
     33 H3         20.7188   48.0061    5.2550 H       1  <0>         0.0230
     34 H4         19.5087   46.7785   11.0495 H       1  <0>         0.0290
     35 H5         18.3745   47.3480   12.3206 H       1  <0>         0.0290
     36 H6         18.3453   48.0988   10.6889 H       1  <0>         0.0290
     37 H7         25.6680   54.1013   12.3194 H       1  <0>         0.0529
     38 H8         25.5670   52.8585   13.6123 H       1  <0>         0.0529
     39 H9         25.7169   52.3569   11.8940 H       1  <0>         0.0529
     40 H10        20.0599   46.9645   16.5459 H       1  <0>         0.0625
     41 H11        17.8074   48.7429   13.3793 H       1  <0>         0.0625
     42 H12        18.0407   46.9493   17.9614 H       1  <0>         0.0632
     43 H13        15.7760   48.7183   14.7905 H       1  <0>         0.0632
     44 H14        23.7037   51.7670   14.7408 H       1  <0>         0.0644
     45 H15        22.2741   49.8084   15.1932 H       1  <0>         0.0637
     46 H16        22.2268   51.9305   10.7442 H       1  <0>         0.0650
     47 H17        19.7091   50.8644    5.4952 H       1  <0>         0.0281
     48 H18        19.0837   49.5972    4.3655 H       1  <0>         0.0281
     49 H19        19.4086   50.8043    9.7863 H       1  <0>         0.0408
     50 H20        21.1700   50.5409    9.3461 H       1  <0>         0.0408
     51 H21        19.1795   47.2844    5.9624 H       1  <0>         0.0575
     52 H22        17.9745   47.4146    7.2871 H       1  <0>         0.0575
     53 H23        17.5729   49.7678    6.3228 H       1  <0>         0.0521
     54 H24        19.0885   50.6802    7.8739 H       1  <0>         0.1491
     55 H25        16.9327   46.6955    5.3748 H       1  <0>         0.2095
@<TRIPOS>BOND
     1     1    11    1
     2     2    14    1
     3     3    29    1
     4     4     6   ar
     5     4    15   ar
     6     5     7   ar
     7     5    15   ar
     8     6    16   ar
     9     7    16   ar
    10     8     9   ar
    11     8    17   ar
    12     9    18   ar
    13    10    17   ar
    14    10    19   ar
    15    11    21    1
    16    12    20    1
    17    12    22    1
    18    13    21    1
    19    13    26    1
    20    14    20    2
    21    14    25    1
    22    15    23    1
    23    16    30    1
    24    17    29    1
    25    18    19   ar
    26    18    25    1
    27    19    20    1
    28    21    24    1
    29    22    24   am
    30    22    27    2
    31    23    25   am
    32    23    28    2
    33     1    31    1
    34     1    32    1
    35     1    33    1
    36     2    34    1
    37     2    35    1
    38     2    36    1
    39     3    37    1
    40     3    38    1
    41     3    39    1
    42     4    40    1
    43     5    41    1
    44     6    42    1
    45     7    43    1
    46     8    44    1
    47     9    45    1
    48    10    46    1
    49    11    47    1
    50    11    48    1
    51    12    49    1
    52    12    50    1
    53    13    51    1
    54    13    52    1
    55    21    53    1
    56    24    54    1
    57    26    55    1
@<TRIPOS>SUBSTRUCTURE
     1 <0>         1 TEMP              0 ****  ****    0 ROOT

