
##########                                Name:        IMS_700_2OYU
##########                    Molecular_Weight:             428.915
##########                DOCK_Rotatable_Bonds:                  10
##########                       Formal_Charge:        -0.000100031
##########                     HBond_Acceptors:                   7
##########                        HBond_Donors:                   2
##########                         Heavy_Atoms:                  30
##########                            HA_RMSDs:               0.491
##########                            HA_RMSDh:               0.491
##########                            HA_RMSDm:               0.491
##########                          Grid_Score:          212.451782
##########                     Grid_vdw_energy:          213.026474
##########                      Grid_es_energy:           -0.574693
##########           Internal_energy_repulsive:           54.775379

@<TRIPOS>MOLECULE
IMS_700_2OYU
 55 57 1 0 0
SMALL
USER_CHARGES


@<TRIPOS>ATOM
      1 C1         21.0989   48.6177    5.5000 C.3     1  <0>        -0.0635
      2 C2         19.1995   48.1544   11.3374 C.3     1  <0>        -0.0256
      3 C3         25.3609   53.7476   12.6485 C.3     1  <0>         0.0430
      4 C4         19.1160   48.2232   16.1072 C.ar    1  <0>        -0.0482
      5 C5         17.8679   48.8101   14.1249 C.ar    1  <0>        -0.0482
      6 C6         17.9485   48.2372   16.8302 C.ar    1  <0>        -0.0427
      7 C7         16.6964   48.8200   14.8509 C.ar    1  <0>        -0.0427
      8 C8         23.1092   52.0221   13.8828 C.ar    1  <0>        -0.0299
      9 C9         22.2951   50.9154   14.1455 C.ar    1  <0>        -0.0369
     10 C10        22.4032   52.0121   11.6048 C.ar    1  <0>        -0.0224
     11 C11        20.0411   49.6613    5.2597 C.3     1  <0>        -0.0352
     12 C12        20.5220   50.5244    9.5671 C.3     1  <0>         0.0512
     13 C13        18.2603   48.2154    6.3360 C.3     1  <0>         0.0625
     14 C14        20.1701   49.1909   11.7921 C.2     1  <0>         0.0199
     15 C15        19.0561   48.5289   14.7682 C.ar    1  <0>         0.0377
     16 C16        16.7448   48.5307   16.2058 C.ar    1  <0>         0.0410
     17 C17        23.1758   52.5773   12.6137 C.ar    1  <0>         0.0765
     18 C18        21.5309   50.3496   13.1333 C.ar    1  <0>         0.0489
     19 C19        21.5877   50.9085   11.8702 C.ar    1  <0>         0.0043
     20 C20        20.7447   50.1875   11.0209 C.2     1  <0>        -0.0123
     21 C21        18.9032   49.6048    6.2725 C.3     1  <0>         0.0459
     22 C22        20.1388   49.4632    8.5616 C.2     1  <0>         0.2177
     23 C23        20.3409   48.4895   14.0503 C.2     1  <0>         0.2550
     24 N1         19.4922   50.0493    7.5411 N.am    1  <0>        -0.3100
     25 N2         20.6626   49.3447   13.0199 N.am    1  <0>        -0.2394
     26 O1         17.1974   48.1365    5.3589 O.3     1  <0>        -0.3932
     27 O2         20.4110   48.2835    8.7030 O.2     1  <0>        -0.2755
     28 O3         21.0918   47.6101   14.4437 O.2     1  <0>        -0.2693
     29 O4         23.9637   53.6796   12.3541 O.3     1  <0>        -0.3479
     30 Cl1        15.4922   48.5255   17.0370 Cl      1  <0>        -0.0835
     31 H1         21.8874   48.7121    4.7389 H       1  <0>         0.0230
     32 H2         21.5353   48.7616    6.4995 H       1  <0>         0.0230
     33 H3         20.6470   47.6167    5.4376 H       1  <0>         0.0230
     34 H4         19.7471   47.2656   10.9906 H       1  <0>         0.0290
     35 H5         18.5416   47.8763   12.1740 H       1  <0>         0.0290
     36 H6         18.5935   48.5567   10.5123 H       1  <0>         0.0290
     37 H7         25.7527   54.7300   12.3457 H       1  <0>         0.0529
     38 H8         25.5150   53.6087   13.7287 H       1  <0>         0.0529
     39 H9         25.8904   52.9563   12.0976 H       1  <0>         0.0529
     40 H10        20.0566   47.9786   16.5781 H       1  <0>         0.0625
     41 H11        17.8563   49.0198   13.0656 H       1  <0>         0.0625
     42 H12        17.9675   48.0190   17.8877 H       1  <0>         0.0632
     43 H13        15.7560   49.0493   14.3720 H       1  <0>         0.0632
     44 H14        23.6957   52.4515   14.6817 H       1  <0>         0.0644
     45 H15        22.2607   50.4985   15.1413 H       1  <0>         0.0637
     46 H16        22.4335   52.4291   10.6089 H       1  <0>         0.0650
     47 H17        20.5132   50.6526    5.3265 H       1  <0>         0.0281
     48 H18        19.6188   49.4996    4.2571 H       1  <0>         0.0281
     49 H19        19.7006   51.2560    9.5543 H       1  <0>         0.0408
     50 H20        21.4749   50.9419    9.2096 H       1  <0>         0.0408
     51 H21        19.0185   47.4488    6.1177 H       1  <0>         0.0575
     52 H22        17.8487   48.0461    7.3420 H       1  <0>         0.0575
     53 H23        18.0635   50.2585    5.9940 H       1  <0>         0.0521
     54 H24        19.3853   51.0337    7.6802 H       1  <0>         0.1491
     55 H25        16.7383   47.3105    5.4557 H       1  <0>         0.2095
@<TRIPOS>BOND
     1     1    11    1
     2     2    14    1
     3     3    29    1
     4     4     6   ar
     5     4    15   ar
     6     5     7   ar
     7     5    15   ar
     8     6    16   ar
     9     7    16   ar
    10     8     9   ar
    11     8    17   ar
    12     9    18   ar
    13    10    17   ar
    14    10    19   ar
    15    11    21    1
    16    12    20    1
    17    12    22    1
    18    13    21    1
    19    13    26    1
    20    14    20    2
    21    14    25    1
    22    15    23    1
    23    16    30    1
    24    17    29    1
    25    18    19   ar
    26    18    25    1
    27    19    20    1
    28    21    24    1
    29    22    24   am
    30    22    27    2
    31    23    25   am
    32    23    28    2
    33     1    31    1
    34     1    32    1
    35     1    33    1
    36     2    34    1
    37     2    35    1
    38     2    36    1
    39     3    37    1
    40     3    38    1
    41     3    39    1
    42     4    40    1
    43     5    41    1
    44     6    42    1
    45     7    43    1
    46     8    44    1
    47     9    45    1
    48    10    46    1
    49    11    47    1
    50    11    48    1
    51    12    49    1
    52    12    50    1
    53    13    51    1
    54    13    52    1
    55    21    53    1
    56    24    54    1
    57    26    55    1
@<TRIPOS>SUBSTRUCTURE
     1 <0>         1 TEMP              0 ****  ****    0 ROOT

