
##########                                Name:        IMS_700_2OYU
##########                    Molecular_Weight:             428.915
##########                DOCK_Rotatable_Bonds:                  10
##########                       Formal_Charge:        -0.000100031
##########                     HBond_Acceptors:                   7
##########                        HBond_Donors:                   2
##########                         Heavy_Atoms:                  30
##########                            HA_RMSDs:               0.504
##########                            HA_RMSDh:               0.504
##########                            HA_RMSDm:               0.504
##########                          Grid_Score:          346.041351
##########                     Grid_vdw_energy:          345.101959
##########                      Grid_es_energy:            0.939388
##########           Internal_energy_repulsive:          202.322891

@<TRIPOS>MOLECULE
IMS_700_2OYU
 55 57 1 0 0
SMALL
USER_CHARGES


@<TRIPOS>ATOM
      1 C1         21.3404   48.0443    5.7245 C.3     1  <0>        -0.0635
      2 C2         18.9799   47.5595   11.4404 C.3     1  <0>        -0.0256
      3 C3         25.0428   53.1883   12.5165 C.3     1  <0>         0.0430
      4 C4         19.3430   47.3133   16.2281 C.ar    1  <0>        -0.0482
      5 C5         17.8699   47.6568   14.3456 C.ar    1  <0>        -0.0482
      6 C6         18.2472   47.2075   17.0492 C.ar    1  <0>        -0.0427
      7 C7         16.7710   47.5466   15.1701 C.ar    1  <0>        -0.0427
      8 C8         22.9657   51.3007   14.0557 C.ar    1  <0>        -0.0299
      9 C9         22.2179   50.1369   14.2624 C.ar    1  <0>        -0.0369
     10 C10        22.0579   51.5050   11.8597 C.ar    1  <0>        -0.0224
     11 C11        20.7715   49.4268    5.5495 C.3     1  <0>        -0.0352
     12 C12        20.0536   50.1633    9.8381 C.3     1  <0>         0.0512
     13 C13        18.5125   48.3445    5.9315 C.3     1  <0>         0.0625
     14 C14        19.9507   48.5832   11.9227 C.2     1  <0>         0.0199
     15 C15        19.1336   47.5550   14.8911 C.ar    1  <0>         0.0377
     16 C16        16.9682   47.3204   16.5236 C.ar    1  <0>         0.0410
     17 C17        22.8981   51.9919   12.8553 C.ar    1  <0>         0.0765
     18 C18        21.3856   49.6500   13.2628 C.ar    1  <0>         0.0489
     19 C19        21.3088   50.3439   12.0696 C.ar    1  <0>         0.0043
     20 C20        20.4182   49.6818   11.2208 C.2     1  <0>        -0.0123
     21 C21        19.3832   49.5846    6.1589 C.3     1  <0>         0.0459
     22 C22        19.8963   49.2003    8.6840 C.2     1  <0>         0.2177
     23 C23        20.3489   47.6507   14.0657 C.2     1  <0>         0.2550
     24 N1         19.6153   49.9005    7.5732 N.am    1  <0>        -0.3100
     25 N2         20.5463   48.6255   13.1131 N.am    1  <0>        -0.2394
     26 O1         17.7983   48.4857    4.6822 O.3     1  <0>        -0.3932
     27 O2         20.0270   47.9941    8.8014 O.2     1  <0>        -0.2755
     28 O3         21.1625   46.7683   14.2928 O.2     1  <0>        -0.2693
     29 O4         23.6204   53.1500   12.6534 O.3     1  <0>        -0.3479
     30 Cl1        15.7997   47.1891   17.4603 Cl      1  <0>        -0.0835
     31 H1         22.3387   47.9971    5.2649 H       1  <0>         0.0230
     32 H2         21.4194   47.8136    6.7971 H       1  <0>         0.0230
     33 H3         20.6786   47.3115    5.2395 H       1  <0>         0.0230
     34 H4         19.5247   46.7386   10.9510 H       1  <0>         0.0290
     35 H5         18.4103   47.1637   12.2942 H       1  <0>         0.0290
     36 H6         18.2882   48.0209   10.7203 H       1  <0>         0.0290
     37 H7         25.3694   54.2278   12.3653 H       1  <0>         0.0529
     38 H8         25.5096   52.7864   13.4279 H       1  <0>         0.0529
     39 H9         25.3442   52.5799   11.6511 H       1  <0>         0.0529
     40 H10        20.3430   47.2093   16.6225 H       1  <0>         0.0625
     41 H11        17.7438   47.8208   13.2857 H       1  <0>         0.0625
     42 H12        18.3815   47.0361   18.1070 H       1  <0>         0.0632
     43 H13        15.7725   47.6351   14.7683 H       1  <0>         0.0632
     44 H14        23.6065   51.6672   14.8441 H       1  <0>         0.0644
     45 H15        22.2879   49.6140   15.2048 H       1  <0>         0.0637
     46 H16        21.9837   52.0279   10.9176 H       1  <0>         0.0650
     47 H17        21.4471   50.1425    6.0408 H       1  <0>         0.0281
     48 H18        20.7011   49.6368    4.4721 H       1  <0>         0.0281
     49 H19        19.0785   50.6611    9.9445 H       1  <0>         0.0408
     50 H20        20.8581   50.8526    9.5420 H       1  <0>         0.0408
     51 H21        19.1505   47.4493    5.8913 H       1  <0>         0.0575
     52 H22        17.7929   48.2436    6.7573 H       1  <0>         0.0575
     53 H23        18.8059   50.3892    5.6799 H       1  <0>         0.0521
     54 H24        19.5473   50.8814    7.7549 H       1  <0>         0.1491
     55 H25        17.1871   47.7653    4.5831 H       1  <0>         0.2095
@<TRIPOS>BOND
     1     1    11    1
     2     2    14    1
     3     3    29    1
     4     4     6   ar
     5     4    15   ar
     6     5     7   ar
     7     5    15   ar
     8     6    16   ar
     9     7    16   ar
    10     8     9   ar
    11     8    17   ar
    12     9    18   ar
    13    10    17   ar
    14    10    19   ar
    15    11    21    1
    16    12    20    1
    17    12    22    1
    18    13    21    1
    19    13    26    1
    20    14    20    2
    21    14    25    1
    22    15    23    1
    23    16    30    1
    24    17    29    1
    25    18    19   ar
    26    18    25    1
    27    19    20    1
    28    21    24    1
    29    22    24   am
    30    22    27    2
    31    23    25   am
    32    23    28    2
    33     1    31    1
    34     1    32    1
    35     1    33    1
    36     2    34    1
    37     2    35    1
    38     2    36    1
    39     3    37    1
    40     3    38    1
    41     3    39    1
    42     4    40    1
    43     5    41    1
    44     6    42    1
    45     7    43    1
    46     8    44    1
    47     9    45    1
    48    10    46    1
    49    11    47    1
    50    11    48    1
    51    12    49    1
    52    12    50    1
    53    13    51    1
    54    13    52    1
    55    21    53    1
    56    24    54    1
    57    26    55    1
@<TRIPOS>SUBSTRUCTURE
     1 <0>         1 TEMP              0 ****  ****    0 ROOT

