
##########                                Name:        IMS_700_2OYU
##########                    Molecular_Weight:             428.915
##########                DOCK_Rotatable_Bonds:                  10
##########                       Formal_Charge:        -0.000100031
##########                     HBond_Acceptors:                   7
##########                        HBond_Donors:                   2
##########                         Heavy_Atoms:                  30
##########                            HA_RMSDs:              15.056
##########                            HA_RMSDh:              15.042
##########                            HA_RMSDm:              14.362
##########                          Grid_Score:          -21.423771
##########                     Grid_vdw_energy:          -23.200127
##########                      Grid_es_energy:            1.776356
##########           Internal_energy_repulsive:           42.390537

@<TRIPOS>MOLECULE
IMS_700_2OYU
 55 57 1 0 0
SMALL
USER_CHARGES


@<TRIPOS>ATOM
      1 C1         12.5701   47.9028   -1.1493 C.3     1  <0>        -0.0635
      2 C2          8.9294   50.9911    4.1357 C.3     1  <0>        -0.0256
      3 C3         11.2252   56.8096   -1.5255 C.3     1  <0>         0.0430
      4 C4          7.7439   54.7947    6.6668 C.ar    1  <0>        -0.0482
      5 C5          6.7548   53.0659    5.3013 C.ar    1  <0>        -0.0482
      6 C6          6.5722   54.8851    7.3774 C.ar    1  <0>        -0.0427
      7 C7          5.5808   53.1550    6.0178 C.ar    1  <0>        -0.0427
      8 C8          9.8458   56.1861    1.1532 C.ar    1  <0>        -0.0299
      9 C9          9.6045   55.6493    2.4221 C.ar    1  <0>        -0.0369
     10 C10         9.7975   53.9970    0.2079 C.ar    1  <0>        -0.0224
     11 C11        11.1197   47.5061   -1.2173 C.3     1  <0>        -0.0352
     12 C12         9.3785   50.9619    0.9267 C.3     1  <0>         0.0512
     13 C13        11.4194   46.8868    1.2214 C.3     1  <0>         0.0625
     14 C14         9.1640   52.1621    3.2432 C.2     1  <0>         0.0199
     15 C15         7.8071   53.8973    5.6274 C.ar    1  <0>         0.0377
     16 C16         5.4974   54.0683    7.0575 C.ar    1  <0>         0.0410
     17 C17         9.9495   55.3689    0.0375 C.ar    1  <0>         0.0765
     18 C18         9.4607   54.2780    2.5888 C.ar    1  <0>         0.0489
     19 C19         9.5530   53.4630    1.4761 C.ar    1  <0>         0.0043
     20 C20         9.3751   52.1358    1.8747 C.2     1  <0>        -0.0123
     21 C21        10.4580   47.4184    0.1531 C.3     1  <0>         0.0459
     22 C22        10.4227   49.8737    1.0233 C.2     1  <0>         0.2177
     23 C23         9.0924   53.8453    4.9113 C.2     1  <0>         0.2550
     24 N1          9.9505   48.7683    0.4247 N.am    1  <0>        -0.3100
     25 N2          9.2164   53.4443    3.5997 N.am    1  <0>        -0.2394
     26 O1         11.2154   45.4642    1.3812 O.3     1  <0>        -0.3932
     27 O2         11.5053   50.0360    1.5595 O.2     1  <0>        -0.2755
     28 O3         10.0467   54.1748    5.5990 O.2     1  <0>        -0.2693
     29 O4         10.1699   55.8955   -1.2185 O.3     1  <0>        -0.3479
     30 Cl1         4.2387   54.1977    7.8691 Cl      1  <0>        -0.0835
     31 H1         12.9866   47.9478   -2.1664 H       1  <0>         0.0230
     32 H2         12.6579   48.8906   -0.6734 H       1  <0>         0.0230
     33 H3         13.1260   47.1601   -0.5581 H       1  <0>         0.0230
     34 H4          9.8931   50.6184    4.5133 H       1  <0>         0.0290
     35 H5          8.2972   51.2964    4.9825 H       1  <0>         0.0290
     36 H6          8.4247   50.1943    3.5697 H       1  <0>         0.0290
     37 H7         11.1817   57.0759   -2.5920 H       1  <0>         0.0529
     38 H8         11.1119   57.7182   -0.9160 H       1  <0>         0.0529
     39 H9         12.1941   56.3382   -1.3047 H       1  <0>         0.0529
     40 H10         8.5934   55.4125    6.9180 H       1  <0>         0.0625
     41 H11         6.8502   52.3542    4.4947 H       1  <0>         0.0625
     42 H12         6.4872   55.5942    8.1876 H       1  <0>         0.0632
     43 H13         4.7395   52.5235    5.7733 H       1  <0>         0.0632
     44 H14         9.9530   57.2549    1.0404 H       1  <0>         0.0644
     45 H15         9.5295   56.3049    3.2771 H       1  <0>         0.0637
     46 H16         9.8690   53.3396   -0.6460 H       1  <0>         0.0650
     47 H17        10.5833   48.2605   -1.8116 H       1  <0>         0.0281
     48 H18        11.0548   46.5176   -1.6955 H       1  <0>         0.0281
     49 H19         8.4112   50.4591    1.0731 H       1  <0>         0.0408
     50 H20         9.4910   51.3928   -0.0791 H       1  <0>         0.0408
     51 H21        12.4571   47.0770    0.9099 H       1  <0>         0.0575
     52 H22        11.2255   47.3959    2.1770 H       1  <0>         0.0575
     53 H23         9.6327   46.6913    0.1726 H       1  <0>         0.0521
     54 H24         9.0217   48.8972    0.0774 H       1  <0>         0.1491
     55 H25        11.8676   45.1154    1.9774 H       1  <0>         0.2095
@<TRIPOS>BOND
     1     1    11    1
     2     2    14    1
     3     3    29    1
     4     4     6   ar
     5     4    15   ar
     6     5     7   ar
     7     5    15   ar
     8     6    16   ar
     9     7    16   ar
    10     8     9   ar
    11     8    17   ar
    12     9    18   ar
    13    10    17   ar
    14    10    19   ar
    15    11    21    1
    16    12    20    1
    17    12    22    1
    18    13    21    1
    19    13    26    1
    20    14    20    2
    21    14    25    1
    22    15    23    1
    23    16    30    1
    24    17    29    1
    25    18    19   ar
    26    18    25    1
    27    19    20    1
    28    21    24    1
    29    22    24   am
    30    22    27    2
    31    23    25   am
    32    23    28    2
    33     1    31    1
    34     1    32    1
    35     1    33    1
    36     2    34    1
    37     2    35    1
    38     2    36    1
    39     3    37    1
    40     3    38    1
    41     3    39    1
    42     4    40    1
    43     5    41    1
    44     6    42    1
    45     7    43    1
    46     8    44    1
    47     9    45    1
    48    10    46    1
    49    11    47    1
    50    11    48    1
    51    12    49    1
    52    12    50    1
    53    13    51    1
    54    13    52    1
    55    21    53    1
    56    24    54    1
    57    26    55    1
@<TRIPOS>SUBSTRUCTURE
     1 <0>         1 TEMP              0 ****  ****    0 ROOT

