
##########                                Name:        IMS_700_2OYU
##########                    Molecular_Weight:             428.915
##########                DOCK_Rotatable_Bonds:                  10
##########                       Formal_Charge:        -0.000100031
##########                     HBond_Acceptors:                   7
##########                        HBond_Donors:                   2
##########                         Heavy_Atoms:                  30
##########                            HA_RMSDs:              14.817
##########                            HA_RMSDh:              14.263
##########                            HA_RMSDm:              12.516
##########                          Grid_Score:          -31.100380
##########                     Grid_vdw_energy:          -29.569262
##########                      Grid_es_energy:           -1.531117
##########           Internal_energy_repulsive:           29.070107

@<TRIPOS>MOLECULE
IMS_700_2OYU
 55 57 1 0 0
SMALL
USER_CHARGES


@<TRIPOS>ATOM
      1 C1          5.6008   51.6642    5.6311 C.3     1  <0>        -0.0635
      2 C2         10.9035   49.1211    3.9597 C.3     1  <0>        -0.0256
      3 C3          9.6631   52.3055   -3.7761 C.3     1  <0>         0.0430
      4 C4         14.8478   47.4852    1.9588 C.ar    1  <0>        -0.0482
      5 C5         14.0802   49.2670    3.3968 C.ar    1  <0>        -0.0482
      6 C6         16.0756   47.5374    2.5720 C.ar    1  <0>        -0.0427
      7 C7         15.3116   49.3156    4.0139 C.ar    1  <0>        -0.0427
      8 C8         11.4934   50.8545   -1.8170 C.ar    1  <0>        -0.0299
      9 C9         11.9796   49.9573   -0.8604 C.ar    1  <0>        -0.0369
     10 C10         9.9893   51.7691   -0.2079 C.ar    1  <0>        -0.0224
     11 C11         6.6279   52.5162    6.3274 C.3     1  <0>        -0.0352
     12 C12         9.0908   51.5437    2.7998 C.3     1  <0>         0.0512
     13 C13         7.9353   50.4877    7.0998 C.3     1  <0>         0.0625
     14 C14        10.9151   49.6796    2.5773 C.2     1  <0>         0.0199
     15 C15        13.8763   48.3660    2.3713 C.ar    1  <0>         0.0377
     16 C16        16.3061   48.4449    3.5957 C.ar    1  <0>         0.0410
     17 C17        10.4935   51.7632   -1.5040 C.ar    1  <0>         0.0765
     18 C18        11.4680   49.9617    0.4307 C.ar    1  <0>         0.0489
     19 C19        10.4790   50.8741    0.7474 C.ar    1  <0>         0.0043
     20 C20        10.1207   50.7025    2.0868 C.2     1  <0>        -0.0123
     21 C21         7.9986   51.8543    6.4096 C.3     1  <0>         0.0459
     22 C22         8.2998   50.9999    3.9670 C.2     1  <0>         0.2177
     23 C23        12.5821   48.2534    1.6786 C.2     1  <0>         0.2550
     24 N1          8.4870   51.8032    5.0266 N.am    1  <0>        -0.3100
     25 N2         11.6881   49.2946    1.5635 N.am    1  <0>        -0.2394
     26 O1          7.5369   50.6675    8.4781 O.3     1  <0>        -0.3932
     27 O2          7.6114   49.9966    3.8945 O.2     1  <0>        -0.2755
     28 O3         12.3658   47.1383    1.2292 O.2     1  <0>        -0.2693
     29 O4         10.0234   52.6618   -2.4393 O.3     1  <0>        -0.3479
     30 Cl1        17.6632   48.4589    4.2422 Cl      1  <0>        -0.0835
     31 H1          4.6385   52.1966    5.6052 H       1  <0>         0.0230
     32 H2          5.9326   51.4568    4.6031 H       1  <0>         0.0230
     33 H3          5.4806   50.7162    6.1761 H       1  <0>         0.0230
     34 H4         10.1833   48.2914    4.0145 H       1  <0>         0.0290
     35 H5         11.9079   48.7521    4.2145 H       1  <0>         0.0290
     36 H6         10.6107   49.9081    4.6704 H       1  <0>         0.0290
     37 H7          9.3204   53.2010   -4.3152 H       1  <0>         0.0529
     38 H8         10.5377   51.8804   -4.2903 H       1  <0>         0.0529
     39 H9          8.8542   51.5606   -3.7514 H       1  <0>         0.0529
     40 H10        14.6507   46.7710    1.1731 H       1  <0>         0.0625
     41 H11        13.2846   49.9258    3.7118 H       1  <0>         0.0625
     42 H12        16.8638   46.8700    2.2563 H       1  <0>         0.0632
     43 H13        15.4988   50.0206    4.8103 H       1  <0>         0.0632
     44 H14        11.9035   50.8395   -2.8161 H       1  <0>         0.0644
     45 H15        12.7573   49.2571   -1.1274 H       1  <0>         0.0637
     46 H16         9.2137   52.4705    0.0624 H       1  <0>         0.0650
     47 H17         6.7324   53.4572    5.7673 H       1  <0>         0.0281
     48 H18         6.2771   52.7113    7.3515 H       1  <0>         0.0281
     49 H19         9.6377   52.4141    3.1914 H       1  <0>         0.0408
     50 H20         8.3462   51.8122    2.0359 H       1  <0>         0.0408
     51 H21         7.2021   49.8493    6.5851 H       1  <0>         0.0575
     52 H22         8.9256   50.0104    7.0622 H       1  <0>         0.0575
     53 H23         8.6995   52.4223    7.0391 H       1  <0>         0.0521
     54 H24         9.1159   52.5534    4.8225 H       1  <0>         0.1491
     55 H25         7.6892   49.8629    8.9597 H       1  <0>         0.2095
@<TRIPOS>BOND
     1     1    11    1
     2     2    14    1
     3     3    29    1
     4     4     6   ar
     5     4    15   ar
     6     5     7   ar
     7     5    15   ar
     8     6    16   ar
     9     7    16   ar
    10     8     9   ar
    11     8    17   ar
    12     9    18   ar
    13    10    17   ar
    14    10    19   ar
    15    11    21    1
    16    12    20    1
    17    12    22    1
    18    13    21    1
    19    13    26    1
    20    14    20    2
    21    14    25    1
    22    15    23    1
    23    16    30    1
    24    17    29    1
    25    18    19   ar
    26    18    25    1
    27    19    20    1
    28    21    24    1
    29    22    24   am
    30    22    27    2
    31    23    25   am
    32    23    28    2
    33     1    31    1
    34     1    32    1
    35     1    33    1
    36     2    34    1
    37     2    35    1
    38     2    36    1
    39     3    37    1
    40     3    38    1
    41     3    39    1
    42     4    40    1
    43     5    41    1
    44     6    42    1
    45     7    43    1
    46     8    44    1
    47     9    45    1
    48    10    46    1
    49    11    47    1
    50    11    48    1
    51    12    49    1
    52    12    50    1
    53    13    51    1
    54    13    52    1
    55    21    53    1
    56    24    54    1
    57    26    55    1
@<TRIPOS>SUBSTRUCTURE
     1 <0>         1 TEMP              0 ****  ****    0 ROOT

