
##########                                Name:          C4F_1_3C4F
##########                    Molecular_Weight:             238.289
##########                DOCK_Rotatable_Bonds:                   3
##########                       Formal_Charge:        -0.000100017
##########                     HBond_Acceptors:                   3
##########                        HBond_Donors:                   1
##########                         Heavy_Atoms:                  18
##########                            HA_RMSDs:               0.271
##########                            HA_RMSDh:               0.271
##########                            HA_RMSDm:               0.271
##########                          Grid_Score:          -47.558678
##########                     Grid_vdw_energy:          -47.037678
##########                      Grid_es_energy:           -0.521001
##########           Internal_energy_repulsive:            5.319476

@<TRIPOS>MOLECULE
C4F_1_3C4F
 32 34 1 0 0
SMALL
USER_CHARGES


@<TRIPOS>ATOM
      1 C1          5.5237    2.1286   12.9714 C.3     1  <0>         0.0430
      2 C2          4.1655    5.1397   15.5895 C.ar    1  <0>        -0.0591
      3 C3          8.3255    3.5886   22.5723 C.ar    1  <0>        -0.0429
      4 C4          4.8739    5.3969   16.7561 C.ar    1  <0>        -0.0581
      5 C5          4.6127    4.1581   14.7156 C.ar    1  <0>        -0.0317
      6 C6          8.0111    4.1608   21.3472 C.ar    1  <0>        -0.0496
      7 C7          7.6546    2.4419   23.0142 C.ar    1  <0>         0.0297
      8 C8          6.4440    3.6857   16.1912 C.ar    1  <0>        -0.0282
      9 C9          5.5638    2.7849   19.1547 C.2     1  <0>        -0.0007
     10 C10         6.7889    4.9123   18.3322 C.3     1  <0>        -0.0005
     11 C11         6.0143    4.6738   17.0561 C.ar    1  <0>        -0.0406
     12 C12         5.7573    3.4377   15.0145 C.ar    1  <0>         0.0761
     13 C13         7.0546    3.4986   20.6184 C.ar    1  <0>         0.0197
     14 C14         6.4582    3.7677   19.2919 C.2     1  <0>        -0.0188
     15 C15         6.4211    2.3953   21.0849 C.ar    1  <0>         0.1300
     16 N1          5.5412    1.9813   20.1638 N.pl3   1  <0>        -0.3050
     17 N2          6.6979    1.8657   22.2760 N.ar    1  <0>        -0.2396
     18 O1          6.2092    2.4198   14.1973 O.3     1  <0>        -0.3479
     19 H1          6.0249    1.2936   12.4600 H       1  <0>         0.0529
     20 H2          4.4819    1.8517   13.1909 H       1  <0>         0.0529
     21 H3          5.5384    3.0173   12.3233 H       1  <0>         0.0529
     22 H4          3.2707    5.7007   15.3633 H       1  <0>         0.0618
     23 H5          9.0934    4.0313   23.1893 H       1  <0>         0.0633
     24 H6          4.5324    6.1661   17.4329 H       1  <0>         0.0620
     25 H7          4.0692    3.9565   13.8043 H       1  <0>         0.0643
     26 H8          8.4857    5.0637   20.9924 H       1  <0>         0.0625
     27 H9          7.9145    2.0131   23.9708 H       1  <0>         0.0830
     28 H10         7.3204    3.1033   16.4343 H       1  <0>         0.0646
     29 H11         4.9265    2.6746   18.2898 H       1  <0>         0.0785
     30 H12         7.8685    4.9301   18.1220 H       1  <0>         0.0362
     31 H13         6.4983    5.8754   18.7771 H       1  <0>         0.0362
     32 H14         4.9569    1.1739   20.2456 H       1  <0>         0.1530
@<TRIPOS>BOND
     1     1    18    1
     2     2     4   ar
     3     2     5   ar
     4     3     6   ar
     5     3     7   ar
     6     4    11   ar
     7     5    12   ar
     8     6    13   ar
     9     7    17   ar
    10     8    11   ar
    11     8    12   ar
    12     9    14    2
    13     9    16    1
    14    10    11    1
    15    10    14    1
    16    12    18    1
    17    13    14    1
    18    13    15   ar
    19    15    16    1
    20    15    17   ar
    21     1    19    1
    22     1    20    1
    23     1    21    1
    24     2    22    1
    25     3    23    1
    26     4    24    1
    27     5    25    1
    28     6    26    1
    29     7    27    1
    30     8    28    1
    31     9    29    1
    32    10    30    1
    33    10    31    1
    34    16    32    1
@<TRIPOS>SUBSTRUCTURE
     1 <0>         1 TEMP              0 ****  ****    0 ROOT

