
##########                                Name:          C4F_1_3C4F
##########                    Molecular_Weight:             238.289
##########                DOCK_Rotatable_Bonds:                   3
##########                       Formal_Charge:        -0.000100017
##########                     HBond_Acceptors:                   3
##########                        HBond_Donors:                   1
##########                         Heavy_Atoms:                  18
##########                            HA_RMSDs:               0.430
##########                            HA_RMSDh:               0.430
##########                            HA_RMSDm:               0.430
##########                          Grid_Score:          -47.024101
##########                     Grid_vdw_energy:          -46.750816
##########                      Grid_es_energy:           -0.273284
##########           Internal_energy_repulsive:            4.981391

@<TRIPOS>MOLECULE
C4F_1_3C4F
 32 34 1 0 0
SMALL
USER_CHARGES


@<TRIPOS>ATOM
      1 C1          5.0100    2.4227   13.0342 C.3     1  <0>         0.0430
      2 C2          4.2005    5.1543   16.1389 C.ar    1  <0>        -0.0591
      3 C3          8.4333    3.5612   22.8021 C.ar    1  <0>        -0.0429
      4 C4          5.0869    5.2518   17.2035 C.ar    1  <0>        -0.0581
      5 C5          4.4919    4.3094   15.0766 C.ar    1  <0>        -0.0317
      6 C6          8.2234    4.0338   21.5137 C.ar    1  <0>        -0.0496
      7 C7          7.6700    2.4999   23.3029 C.ar    1  <0>         0.0297
      8 C8          6.5263    3.6516   16.1641 C.ar    1  <0>        -0.0282
      9 C9          5.8229    2.5986   19.3075 C.2     1  <0>        -0.0007
     10 C10         7.2198    4.5687   18.3744 C.3     1  <0>        -0.0005
     11 C11         6.2509    4.5045   17.2157 C.ar    1  <0>        -0.0406
     12 C12         5.6598    3.5650   15.0874 C.ar    1  <0>         0.0761
     13 C13         7.2704    3.3610   20.7899 C.ar    1  <0>         0.0197
     14 C14         6.7666    3.5385   19.4107 C.2     1  <0>        -0.0188
     15 C15         6.5456    2.3430   21.3137 C.ar    1  <0>         0.1300
     16 N1          5.6949    1.8949   20.3812 N.pl3   1  <0>        -0.3050
     17 N2          6.7226    1.9117   22.5622 N.ar    1  <0>        -0.2396
     18 O1          5.9642    2.6762   14.0747 O.3     1  <0>        -0.3479
     19 H1          5.4265    1.6935   12.3237 H       1  <0>         0.0529
     20 H2          4.0862    2.0190   13.4744 H       1  <0>         0.0529
     21 H3          4.7852    3.3613   12.5065 H       1  <0>         0.0529
     22 H4          3.2886    5.7330   16.1373 H       1  <0>         0.0618
     23 H5          9.1912    4.0159   23.4228 H       1  <0>         0.0633
     24 H6          4.8662    5.9151   18.0268 H       1  <0>         0.0620
     25 H7          3.8092    4.2326   14.2432 H       1  <0>         0.0643
     26 H8          8.7714    4.8719   21.1092 H       1  <0>         0.0625
     27 H9          7.8493    2.1480   24.3082 H       1  <0>         0.0830
     28 H10         7.4225    3.0491   16.1819 H       1  <0>         0.0646
     29 H11         5.2294    2.4441   18.4186 H       1  <0>         0.0785
     30 H12         8.2381    4.3362   18.0297 H       1  <0>         0.0362
     31 H13         7.2161    5.5763   18.8155 H       1  <0>         0.0362
     32 H14         5.0587    1.1324   20.4991 H       1  <0>         0.1530
@<TRIPOS>BOND
     1     1    18    1
     2     2     4   ar
     3     2     5   ar
     4     3     6   ar
     5     3     7   ar
     6     4    11   ar
     7     5    12   ar
     8     6    13   ar
     9     7    17   ar
    10     8    11   ar
    11     8    12   ar
    12     9    14    2
    13     9    16    1
    14    10    11    1
    15    10    14    1
    16    12    18    1
    17    13    14    1
    18    13    15   ar
    19    15    16    1
    20    15    17   ar
    21     1    19    1
    22     1    20    1
    23     1    21    1
    24     2    22    1
    25     3    23    1
    26     4    24    1
    27     5    25    1
    28     6    26    1
    29     7    27    1
    30     8    28    1
    31     9    29    1
    32    10    30    1
    33    10    31    1
    34    16    32    1
@<TRIPOS>SUBSTRUCTURE
     1 <0>         1 TEMP              0 ****  ****    0 ROOT

