
##########                                Name:          C4F_1_3C4F
##########                    Molecular_Weight:             238.289
##########                DOCK_Rotatable_Bonds:                   3
##########                       Formal_Charge:        -0.000100017
##########                     HBond_Acceptors:                   3
##########                        HBond_Donors:                   1
##########                         Heavy_Atoms:                  18
##########                            HA_RMSDs:               0.336
##########                            HA_RMSDh:               0.336
##########                            HA_RMSDm:               0.336
##########                          Grid_Score:          -48.070850
##########                     Grid_vdw_energy:          -47.514137
##########                      Grid_es_energy:           -0.556712
##########           Internal_energy_repulsive:            5.096247

@<TRIPOS>MOLECULE
C4F_1_3C4F
 32 34 1 0 0
SMALL
USER_CHARGES


@<TRIPOS>ATOM
      1 C1          5.1930    2.4984   12.8053 C.3     1  <0>         0.0430
      2 C2          3.8985    5.1272   15.8437 C.ar    1  <0>        -0.0591
      3 C3          8.4589    3.5471   22.4841 C.ar    1  <0>        -0.0429
      4 C4          4.7131    5.3360   16.9490 C.ar    1  <0>        -0.0581
      5 C5          4.2964    4.2384   14.8542 C.ar    1  <0>        -0.0317
      6 C6          8.1116    4.1099   21.2634 C.ar    1  <0>        -0.0496
      7 C7          7.7933    2.4101   22.9575 C.ar    1  <0>         0.0297
      8 C8          6.2928    3.7589   16.0946 C.ar    1  <0>        -0.0282
      9 C9          5.5884    2.7319   19.1602 C.2     1  <0>        -0.0007
     10 C10         6.8039    4.8414   18.2796 C.3     1  <0>        -0.0005
     11 C11         5.9111    4.6559   17.0739 C.ar    1  <0>        -0.0406
     12 C12         5.4984    3.5613   14.9778 C.ar    1  <0>         0.0761
     13 C13         7.1284    3.4481   20.5707 C.ar    1  <0>         0.0197
     14 C14         6.4939    3.7089   19.2603 C.2     1  <0>        -0.0188
     15 C15         6.5011    2.3544   21.0672 C.ar    1  <0>         0.1300
     16 N1          5.5905    1.9383   20.1775 N.pl3   1  <0>        -0.3050
     17 N2          6.8102    1.8342   22.2546 N.ar    1  <0>        -0.2396
     18 O1          5.9085    2.6324   14.0413 O.3     1  <0>        -0.3479
     19 H1          5.6628    1.7153   12.1921 H       1  <0>         0.0529
     20 H2          4.1487    2.2229   13.0144 H       1  <0>         0.0529
     21 H3          5.2184    3.4543   12.2616 H       1  <0>         0.0529
     22 H4          2.9598    5.6538   15.7543 H       1  <0>         0.0618
     23 H5          9.2486    3.9898   23.0730 H       1  <0>         0.0633
     24 H6          4.4094    6.0335   17.7155 H       1  <0>         0.0620
     25 H7          3.6700    4.0752   13.9897 H       1  <0>         0.0643
     26 H8          8.5820    5.0055   20.8854 H       1  <0>         0.0625
     27 H9          8.0789    1.9886   23.9100 H       1  <0>         0.0830
     28 H10         7.2161    3.2087   16.2009 H       1  <0>         0.0646
     29 H11         4.9243    2.6182   18.3162 H       1  <0>         0.0785
     30 H12         7.8608    4.8022   17.9777 H       1  <0>         0.0362
     31 H13         6.6057    5.8154   18.7511 H       1  <0>         0.0362
     32 H14         5.0030    1.1364   20.2850 H       1  <0>         0.1530
@<TRIPOS>BOND
     1     1    18    1
     2     2     4   ar
     3     2     5   ar
     4     3     6   ar
     5     3     7   ar
     6     4    11   ar
     7     5    12   ar
     8     6    13   ar
     9     7    17   ar
    10     8    11   ar
    11     8    12   ar
    12     9    14    2
    13     9    16    1
    14    10    11    1
    15    10    14    1
    16    12    18    1
    17    13    14    1
    18    13    15   ar
    19    15    16    1
    20    15    17   ar
    21     1    19    1
    22     1    20    1
    23     1    21    1
    24     2    22    1
    25     3    23    1
    26     4    24    1
    27     5    25    1
    28     6    26    1
    29     7    27    1
    30     8    28    1
    31     9    29    1
    32    10    30    1
    33    10    31    1
    34    16    32    1
@<TRIPOS>SUBSTRUCTURE
     1 <0>         1 TEMP              0 ****  ****    0 ROOT

