
##########                                Name:          C4F_1_3C4F
##########                    Molecular_Weight:             238.289
##########                DOCK_Rotatable_Bonds:                   3
##########                       Formal_Charge:        -0.000100017
##########                     HBond_Acceptors:                   3
##########                        HBond_Donors:                   1
##########                         Heavy_Atoms:                  18
##########                            HA_RMSDs:               0.240
##########                            HA_RMSDh:               0.240
##########                            HA_RMSDm:               0.240
##########                          Grid_Score:          -47.687374
##########                     Grid_vdw_energy:          -46.928326
##########                      Grid_es_energy:           -0.759049
##########           Internal_energy_repulsive:            5.249340

@<TRIPOS>MOLECULE
C4F_1_3C4F
 32 34 1 0 0
SMALL
USER_CHARGES


@<TRIPOS>ATOM
      1 C1          5.3938    2.0081   13.0016 C.3     1  <0>         0.0430
      2 C2          4.1366    5.0943   15.5834 C.ar    1  <0>        -0.0591
      3 C3          8.4018    3.3935   22.4903 C.ar    1  <0>        -0.0429
      4 C4          4.8566    5.3452   16.7442 C.ar    1  <0>        -0.0581
      5 C5          4.5468    4.0836   14.7246 C.ar    1  <0>        -0.0317
      6 C6          8.0660    3.9880   21.2815 C.ar    1  <0>        -0.0496
      7 C7          7.6906    2.2816   22.9572 C.ar    1  <0>         0.0297
      8 C8          6.3640    3.5707   16.2040 C.ar    1  <0>        -0.0282
      9 C9          5.4576    2.7548   19.1923 C.2     1  <0>        -0.0007
     10 C10         6.7574    4.8187   18.3241 C.3     1  <0>        -0.0005
     11 C11         5.9716    4.5872   17.0536 C.ar    1  <0>        -0.0406
     12 C12         5.6660    3.3282   15.0329 C.ar    1  <0>         0.0761
     13 C13         7.0454    3.3810   20.5926 C.ar    1  <0>         0.0197
     14 C14         6.4079    3.6882   19.2938 C.2     1  <0>        -0.0188
     15 C15         6.3748    2.3103   21.0827 C.ar    1  <0>         0.1300
     16 N1          5.4357    1.9482   20.1990 N.pl3   1  <0>        -0.3050
     17 N2          6.6740    1.7606   22.2592 N.ar    1  <0>        -0.2396
     18 O1          6.0796    2.2820   14.2313 O.3     1  <0>        -0.3479
     19 H1          5.8620    1.1458   12.5043 H       1  <0>         0.0529
     20 H2          4.3386    1.7808   13.2132 H       1  <0>         0.0529
     21 H3          5.4549    2.8879   12.3442 H       1  <0>         0.0529
     22 H4          3.2616    5.6828   15.3499 H       1  <0>         0.0618
     23 H5          9.2178    3.7918   23.0750 H       1  <0>         0.0633
     24 H6          4.5442    6.1367   17.4092 H       1  <0>         0.0620
     25 H7          3.9941    3.8866   13.8178 H       1  <0>         0.0643
     26 H8          8.5722    4.8664   20.9093 H       1  <0>         0.0625
     27 H9          7.9681    1.8347   23.9005 H       1  <0>         0.0830
     28 H10         7.2200    2.9617   16.4547 H       1  <0>         0.0646
     29 H11         4.7790    2.6828   18.3552 H       1  <0>         0.0785
     30 H12         7.8361    4.8126   18.1086 H       1  <0>         0.0362
     31 H13         6.4891    5.7908   18.7634 H       1  <0>         0.0362
     32 H14         4.8135    1.1724   20.3035 H       1  <0>         0.1530
@<TRIPOS>BOND
     1     1    18    1
     2     2     4   ar
     3     2     5   ar
     4     3     6   ar
     5     3     7   ar
     6     4    11   ar
     7     5    12   ar
     8     6    13   ar
     9     7    17   ar
    10     8    11   ar
    11     8    12   ar
    12     9    14    2
    13     9    16    1
    14    10    11    1
    15    10    14    1
    16    12    18    1
    17    13    14    1
    18    13    15   ar
    19    15    16    1
    20    15    17   ar
    21     1    19    1
    22     1    20    1
    23     1    21    1
    24     2    22    1
    25     3    23    1
    26     4    24    1
    27     5    25    1
    28     6    26    1
    29     7    27    1
    30     8    28    1
    31     9    29    1
    32    10    30    1
    33    10    31    1
    34    16    32    1
@<TRIPOS>SUBSTRUCTURE
     1 <0>         1 TEMP              0 ****  ****    0 ROOT

