
##########                                Name:          C4F_1_3C4F
##########                    Molecular_Weight:             238.289
##########                DOCK_Rotatable_Bonds:                   3
##########                       Formal_Charge:        -0.000100017
##########                     HBond_Acceptors:                   3
##########                        HBond_Donors:                   1
##########                         Heavy_Atoms:                  18
##########                            HA_RMSDs:               0.291
##########                            HA_RMSDh:               0.291
##########                            HA_RMSDm:               0.291
##########                          Grid_Score:          -47.934448
##########                     Grid_vdw_energy:          -47.537392
##########                      Grid_es_energy:           -0.397055
##########           Internal_energy_repulsive:            5.013844

@<TRIPOS>MOLECULE
C4F_1_3C4F
 32 34 1 0 0
SMALL
USER_CHARGES


@<TRIPOS>ATOM
      1 C1          5.3365    2.3546   12.9395 C.3     1  <0>         0.0430
      2 C2          3.9934    5.0098   15.9232 C.ar    1  <0>        -0.0591
      3 C3          8.3345    3.4582   22.6789 C.ar    1  <0>        -0.0429
      4 C4          4.7727    5.2060   17.0559 C.ar    1  <0>        -0.0581
      5 C5          4.4584    4.1930   14.9015 C.ar    1  <0>        -0.0317
      6 C6          8.0406    4.0211   21.4443 C.ar    1  <0>        -0.0496
      7 C7          7.6420    2.3271   23.1272 C.ar    1  <0>         0.0297
      8 C8          6.4515    3.7577   16.1633 C.ar    1  <0>        -0.0282
      9 C9          5.5936    2.6574   19.2439 C.2     1  <0>        -0.0007
     10 C10         6.8590    4.7562   18.4092 C.3     1  <0>        -0.0005
     11 C11         6.0025    4.5840   17.1755 C.ar    1  <0>        -0.0406
     12 C12         5.6919    3.5743   15.0201 C.ar    1  <0>         0.0761
     13 C13         7.0811    3.3651   20.7138 C.ar    1  <0>         0.0197
     14 C14         6.5016    3.6280   19.3787 C.2     1  <0>        -0.0188
     15 C15         6.4263    2.2771   21.1867 C.ar    1  <0>         0.1300
     16 N1          5.5490    1.8660   20.2619 N.pl3   1  <0>        -0.3050
     17 N2          6.6836    1.7570   22.3864 N.ar    1  <0>        -0.2396
     18 O1          6.1701    2.7155   14.0496 O.3     1  <0>        -0.3479
     19 H1          5.8843    1.6686   12.2767 H       1  <0>         0.0529
     20 H2          4.4273    1.8584   13.3101 H       1  <0>         0.0529
     21 H3          5.0583    3.2602   12.3805 H       1  <0>         0.0529
     22 H4          3.0300    5.4905   15.8375 H       1  <0>         0.0618
     23 H5          9.1032    3.8963   23.2982 H       1  <0>         0.0633
     24 H6          4.4165    5.8480   17.8479 H       1  <0>         0.0620
     25 H7          3.8595    4.0402   14.0158 H       1  <0>         0.0643
     26 H8          8.5325    4.9124   21.0839 H       1  <0>         0.0625
     27 H9          7.8860    1.9055   24.0911 H       1  <0>         0.0830
     28 H10         7.4004    3.2519   16.2643 H       1  <0>         0.0646
     29 H11         4.9630    2.5469   18.3742 H       1  <0>         0.0785
     30 H12         7.9244    4.7017   18.1411 H       1  <0>         0.0362
     31 H13         6.6601    5.7328   18.8749 H       1  <0>         0.0362
     32 H14         4.9516    1.0686   20.3472 H       1  <0>         0.1530
@<TRIPOS>BOND
     1     1    18    1
     2     2     4   ar
     3     2     5   ar
     4     3     6   ar
     5     3     7   ar
     6     4    11   ar
     7     5    12   ar
     8     6    13   ar
     9     7    17   ar
    10     8    11   ar
    11     8    12   ar
    12     9    14    2
    13     9    16    1
    14    10    11    1
    15    10    14    1
    16    12    18    1
    17    13    14    1
    18    13    15   ar
    19    15    16    1
    20    15    17   ar
    21     1    19    1
    22     1    20    1
    23     1    21    1
    24     2    22    1
    25     3    23    1
    26     4    24    1
    27     5    25    1
    28     6    26    1
    29     7    27    1
    30     8    28    1
    31     9    29    1
    32    10    30    1
    33    10    31    1
    34    16    32    1
@<TRIPOS>SUBSTRUCTURE
     1 <0>         1 TEMP              0 ****  ****    0 ROOT

