
##########                                Name:          C4F_1_3C4F
##########                    Molecular_Weight:             238.289
##########                DOCK_Rotatable_Bonds:                   3
##########                       Formal_Charge:        -0.000100017
##########                     HBond_Acceptors:                   3
##########                        HBond_Donors:                   1
##########                         Heavy_Atoms:                  18
##########                            HA_RMSDs:               0.300
##########                            HA_RMSDh:               0.300
##########                            HA_RMSDm:               0.300
##########                          Grid_Score:          -46.464298
##########                     Grid_vdw_energy:          -46.155354
##########                      Grid_es_energy:           -0.308945
##########           Internal_energy_repulsive:            5.192466

@<TRIPOS>MOLECULE
C4F_1_3C4F
 32 34 1 0 0
SMALL
USER_CHARGES


@<TRIPOS>ATOM
      1 C1          5.3149    2.1988   12.9560 C.3     1  <0>         0.0430
      2 C2          3.8935    4.9565   15.8070 C.ar    1  <0>        -0.0591
      3 C3          8.3770    3.6125   22.5664 C.ar    1  <0>        -0.0429
      4 C4          4.6544    5.2144   16.9398 C.ar    1  <0>        -0.0581
      5 C5          4.3797    4.0941   14.8337 C.ar    1  <0>        -0.0317
      6 C6          8.0121    4.1698   21.3484 C.ar    1  <0>        -0.0496
      7 C7          7.8076    2.4078   22.9958 C.ar    1  <0>         0.0297
      8 C8          6.3569    3.7375   16.1441 C.ar    1  <0>        -0.0282
      9 C9          5.6865    2.6150   19.1431 C.2     1  <0>        -0.0007
     10 C10         6.7236    4.8485   18.3438 C.3     1  <0>        -0.0005
     11 C11         5.8868    4.6090   17.1078 C.ar    1  <0>        -0.0406
     12 C12         5.6157    3.4920   15.0005 C.ar    1  <0>         0.0761
     13 C13         7.1141    3.4366   20.6132 C.ar    1  <0>         0.0197
     14 C14         6.4940    3.6689   19.2906 C.2     1  <0>        -0.0188
     15 C15         6.5782    2.2780   21.0677 C.ar    1  <0>         0.1300
     16 N1          5.7349    1.8009   20.1429 N.pl3   1  <0>        -0.3050
     17 N2          6.9019    1.7603   22.2522 N.ar    1  <0>        -0.2396
     18 O1          6.1147    2.5904   14.0805 O.3     1  <0>        -0.3479
     19 H1          5.8752    1.4806   12.3393 H       1  <0>         0.0529
     20 H2          4.3861    1.7295   13.3125 H       1  <0>         0.0529
     21 H3          5.0700    3.0862   12.3538 H       1  <0>         0.0529
     22 H4          2.9280    5.4245   15.6838 H       1  <0>         0.0618
     23 H5          9.1057    4.1122   23.1876 H       1  <0>         0.0633
     24 H6          4.2818    5.8916   17.6940 H       1  <0>         0.0620
     25 H7          3.7951    3.8931   13.9480 H       1  <0>         0.0643
     26 H8          8.4071    5.1139   21.0035 H       1  <0>         0.0625
     27 H9          8.1052    1.9918   23.9470 H       1  <0>         0.0830
     28 H10         7.3079    3.2449   16.2837 H       1  <0>         0.0646
     29 H11         5.0591    2.4605   18.2778 H       1  <0>         0.0785
     30 H12         7.7877    4.9154   18.0735 H       1  <0>         0.0362
     31 H13         6.4213    5.7881   18.8294 H       1  <0>         0.0362
     32 H14         5.2219    0.9456   20.2160 H       1  <0>         0.1530
@<TRIPOS>BOND
     1     1    18    1
     2     2     4   ar
     3     2     5   ar
     4     3     6   ar
     5     3     7   ar
     6     4    11   ar
     7     5    12   ar
     8     6    13   ar
     9     7    17   ar
    10     8    11   ar
    11     8    12   ar
    12     9    14    2
    13     9    16    1
    14    10    11    1
    15    10    14    1
    16    12    18    1
    17    13    14    1
    18    13    15   ar
    19    15    16    1
    20    15    17   ar
    21     1    19    1
    22     1    20    1
    23     1    21    1
    24     2    22    1
    25     3    23    1
    26     4    24    1
    27     5    25    1
    28     6    26    1
    29     7    27    1
    30     8    28    1
    31     9    29    1
    32    10    30    1
    33    10    31    1
    34    16    32    1
@<TRIPOS>SUBSTRUCTURE
     1 <0>         1 TEMP              0 ****  ****    0 ROOT

