
##########                                Name:          C4F_1_3C4F
##########                    Molecular_Weight:             238.289
##########                DOCK_Rotatable_Bonds:                   3
##########                       Formal_Charge:        -0.000100017
##########                     HBond_Acceptors:                   3
##########                        HBond_Donors:                   1
##########                         Heavy_Atoms:                  18
##########                            HA_RMSDs:               0.339
##########                            HA_RMSDh:               0.339
##########                            HA_RMSDm:               0.339
##########                          Grid_Score:          -48.155884
##########                     Grid_vdw_energy:          -47.753559
##########                      Grid_es_energy:           -0.402324
##########           Internal_energy_repulsive:            5.098758

@<TRIPOS>MOLECULE
C4F_1_3C4F
 32 34 1 0 0
SMALL
USER_CHARGES


@<TRIPOS>ATOM
      1 C1          5.0961    2.3595   12.8868 C.3     1  <0>         0.0430
      2 C2          3.8896    4.9543   15.9810 C.ar    1  <0>        -0.0591
      3 C3          8.4128    3.5843   22.6109 C.ar    1  <0>        -0.0429
      4 C4          4.7333    5.1586   17.0652 C.ar    1  <0>        -0.0581
      5 C5          4.2863    4.1139   14.9497 C.ar    1  <0>        -0.0317
      6 C6          8.0910    4.1035   21.3642 C.ar    1  <0>        -0.0496
      7 C7          7.7945    2.4175   23.0759 C.ar    1  <0>         0.0297
      8 C8          6.3406    3.6718   16.1066 C.ar    1  <0>        -0.0282
      9 C9          5.7578    2.5384   19.1743 C.2     1  <0>        -0.0007
     10 C10         6.8855    4.7021   18.3086 C.3     1  <0>        -0.0005
     11 C11         5.9594    4.5213   17.1275 C.ar    1  <0>        -0.0406
     12 C12         5.5162    3.4799   15.0107 C.ar    1  <0>         0.0761
     13 C13         7.1832    3.3713   20.6401 C.ar    1  <0>         0.0197
     14 C14         6.5975    3.5702   19.2966 C.2     1  <0>        -0.0188
     15 C15         6.5995    2.2504   21.1291 C.ar    1  <0>         0.1300
     16 N1          5.7589    1.7644   20.2065 N.pl3   1  <0>        -0.3050
     17 N2          6.8822    1.7708   22.3398 N.ar    1  <0>        -0.2396
     18 O1          5.9283    2.5982   14.0305 O.3     1  <0>        -0.3479
     19 H1          5.5864    1.6340   12.2209 H       1  <0>         0.0529
     20 H2          4.1267    1.9575   13.2164 H       1  <0>         0.0529
     21 H3          4.9370    3.3040   12.3459 H       1  <0>         0.0529
     22 H4          2.9294    5.4471   15.9404 H       1  <0>         0.0618
     23 H5          9.1456    4.0843   23.2268 H       1  <0>         0.0633
     24 H6          4.4302    5.8188   17.8643 H       1  <0>         0.0620
     25 H7          3.6370    3.9547   14.1014 H       1  <0>         0.0643
     26 H8          8.5245    5.0193   20.9903 H       1  <0>         0.0625
     27 H9          8.0591    2.0308   24.0490 H       1  <0>         0.0830
     28 H10         7.2868    3.1543   16.1638 H       1  <0>         0.0646
     29 H11         5.1426    2.3699   18.3028 H       1  <0>         0.0785
     30 H12         7.9337    4.6585   17.9780 H       1  <0>         0.0362
     31 H13         6.7045    5.6765   18.7859 H       1  <0>         0.0362
     32 H14         5.2158    0.9302   20.3029 H       1  <0>         0.1530
@<TRIPOS>BOND
     1     1    18    1
     2     2     4   ar
     3     2     5   ar
     4     3     6   ar
     5     3     7   ar
     6     4    11   ar
     7     5    12   ar
     8     6    13   ar
     9     7    17   ar
    10     8    11   ar
    11     8    12   ar
    12     9    14    2
    13     9    16    1
    14    10    11    1
    15    10    14    1
    16    12    18    1
    17    13    14    1
    18    13    15   ar
    19    15    16    1
    20    15    17   ar
    21     1    19    1
    22     1    20    1
    23     1    21    1
    24     2    22    1
    25     3    23    1
    26     4    24    1
    27     5    25    1
    28     6    26    1
    29     7    27    1
    30     8    28    1
    31     9    29    1
    32    10    30    1
    33    10    31    1
    34    16    32    1
@<TRIPOS>SUBSTRUCTURE
     1 <0>         1 TEMP              0 ****  ****    0 ROOT

