
##########                                Name:          C4F_1_3C4F
##########                    Molecular_Weight:             238.289
##########                DOCK_Rotatable_Bonds:                   3
##########                       Formal_Charge:        -0.000100017
##########                     HBond_Acceptors:                   3
##########                        HBond_Donors:                   1
##########                         Heavy_Atoms:                  18
##########                            HA_RMSDs:               0.379
##########                            HA_RMSDh:               0.379
##########                            HA_RMSDm:               0.379
##########                          Grid_Score:          -46.314796
##########                     Grid_vdw_energy:          -45.870182
##########                      Grid_es_energy:           -0.444613
##########           Internal_energy_repulsive:            5.090334

@<TRIPOS>MOLECULE
C4F_1_3C4F
 32 34 1 0 0
SMALL
USER_CHARGES


@<TRIPOS>ATOM
      1 C1          5.3437    2.3764   12.9697 C.3     1  <0>         0.0430
      2 C2          4.0139    5.0318   15.9664 C.ar    1  <0>        -0.0591
      3 C3          8.5223    3.5880   22.6651 C.ar    1  <0>        -0.0429
      4 C4          4.8182    5.2597   17.0754 C.ar    1  <0>        -0.0581
      5 C5          4.4314    4.1432   14.9849 C.ar    1  <0>        -0.0317
      6 C6          8.1846    4.1299   21.4324 C.ar    1  <0>        -0.0496
      7 C7          7.8638    2.4497   23.1455 C.ar    1  <0>         0.0297
      8 C8          6.4270    3.7016   16.2405 C.ar    1  <0>        -0.0282
      9 C9          5.7057    2.6934   19.3156 C.2     1  <0>        -0.0007
     10 C10         6.9079    4.8050   18.4219 C.3     1  <0>        -0.0005
     11 C11         6.0256    4.5986   17.2118 C.ar    1  <0>        -0.0406
     12 C12         5.6426    3.4852   15.1201 C.ar    1  <0>         0.0761
     13 C13         7.2184    3.4470   20.7360 C.ar    1  <0>         0.0197
     14 C14         6.5983    3.6824   19.4141 C.2     1  <0>        -0.0188
     15 C15         6.5974    2.3529   21.2395 C.ar    1  <0>         0.1300
     16 N1          5.7036    1.9139   20.3437 N.pl3   1  <0>        -0.3050
     17 N2          6.8968    1.8527   22.4378 N.ar    1  <0>        -0.2396
     18 O1          6.0726    2.5569   14.1919 O.3     1  <0>        -0.3479
     19 H1          5.8330    1.6014   12.3615 H       1  <0>         0.0529
     20 H2          4.3138    2.0660   13.1997 H       1  <0>         0.0529
     21 H3          5.3253    3.3236   12.4107 H       1  <0>         0.0529
     22 H4          3.0679    5.5436   15.8679 H       1  <0>         0.0618
     23 H5          9.2989    4.0480   23.2581 H       1  <0>         0.0633
     24 H6          4.4992    5.9571   17.8357 H       1  <0>         0.0620
     25 H7          3.8129    3.9652   14.1176 H       1  <0>         0.0643
     26 H8          8.6495    5.0257   21.0481 H       1  <0>         0.0625
     27 H9          8.1417    2.0447   24.1073 H       1  <0>         0.0830
     28 H10         7.3578    3.1661   16.3559 H       1  <0>         0.0646
     29 H11         5.0541    2.5603   18.4646 H       1  <0>         0.0785
     30 H12         7.9674    4.7695   18.1285 H       1  <0>         0.0362
     31 H13         6.6995    5.7832   18.8799 H       1  <0>         0.0362
     32 H14         5.1241    1.1066   20.4546 H       1  <0>         0.1530
@<TRIPOS>BOND
     1     1    18    1
     2     2     4   ar
     3     2     5   ar
     4     3     6   ar
     5     3     7   ar
     6     4    11   ar
     7     5    12   ar
     8     6    13   ar
     9     7    17   ar
    10     8    11   ar
    11     8    12   ar
    12     9    14    2
    13     9    16    1
    14    10    11    1
    15    10    14    1
    16    12    18    1
    17    13    14    1
    18    13    15   ar
    19    15    16    1
    20    15    17   ar
    21     1    19    1
    22     1    20    1
    23     1    21    1
    24     2    22    1
    25     3    23    1
    26     4    24    1
    27     5    25    1
    28     6    26    1
    29     7    27    1
    30     8    28    1
    31     9    29    1
    32    10    30    1
    33    10    31    1
    34    16    32    1
@<TRIPOS>SUBSTRUCTURE
     1 <0>         1 TEMP              0 ****  ****    0 ROOT

