
##########                                Name:          C4F_1_3C4F
##########                    Molecular_Weight:             238.289
##########                DOCK_Rotatable_Bonds:                   3
##########                       Formal_Charge:        -0.000100017
##########                     HBond_Acceptors:                   3
##########                        HBond_Donors:                   1
##########                         Heavy_Atoms:                  18
##########                            HA_RMSDs:               0.394
##########                            HA_RMSDh:               0.394
##########                            HA_RMSDm:               0.394
##########                          Grid_Score:          -45.774494
##########                     Grid_vdw_energy:          -45.424286
##########                      Grid_es_energy:           -0.350207
##########           Internal_energy_repulsive:            5.028944

@<TRIPOS>MOLECULE
C4F_1_3C4F
 32 34 1 0 0
SMALL
USER_CHARGES


@<TRIPOS>ATOM
      1 C1          5.3219    2.2181   13.0711 C.3     1  <0>         0.0430
      2 C2          4.1231    4.9732   16.0250 C.ar    1  <0>        -0.0591
      3 C3          8.5926    3.5044   22.7198 C.ar    1  <0>        -0.0429
      4 C4          4.9383    5.1832   17.1296 C.ar    1  <0>        -0.0581
      5 C5          4.5300    4.0990   15.0263 C.ar    1  <0>        -0.0317
      6 C6          8.2807    4.0359   21.4758 C.ar    1  <0>        -0.0496
      7 C7          7.8855    2.4046   23.2203 C.ar    1  <0>         0.0297
      8 C8          6.5368    3.6358   16.2560 C.ar    1  <0>        -0.0282
      9 C9          5.7477    2.6644   19.3801 C.2     1  <0>        -0.0007
     10 C10         7.0400    4.7055   18.4492 C.3     1  <0>        -0.0005
     11 C11         6.1460    4.5185   17.2445 C.ar    1  <0>        -0.0406
     12 C12         5.7415    3.4374   15.1399 C.ar    1  <0>         0.0761
     13 C13         7.2880    3.3810   20.7901 C.ar    1  <0>         0.0197
     14 C14         6.6811    3.6165   19.4620 C.2     1  <0>        -0.0188
     15 C15         6.6202    2.3241   21.3128 C.ar    1  <0>         0.1300
     16 N1          5.7106    1.9059   20.4231 N.pl3   1  <0>        -0.3050
     17 N2          6.8957    1.8352   22.5215 N.ar    1  <0>        -0.2396
     18 O1          6.1613    2.5228   14.1937 O.3     1  <0>        -0.3479
     19 H1          5.8200    1.4747   12.4313 H       1  <0>         0.0529
     20 H2          4.3647    1.8111   13.4290 H       1  <0>         0.0529
     21 H3          5.1373    3.1350   12.4921 H       1  <0>         0.0529
     22 H4          3.1770    5.4877   15.9433 H       1  <0>         0.0618
     23 H5          9.3867    3.9428   23.3061 H       1  <0>         0.0633
     24 H6          4.6276    5.8695   17.9034 H       1  <0>         0.0620
     25 H7          3.9030    3.9350   14.1623 H       1  <0>         0.0643
     26 H8          8.7838    4.9037   21.0756 H       1  <0>         0.0625
     27 H9          8.1440    2.0071   24.1907 H       1  <0>         0.0830
     28 H10         7.4679    3.0974   16.3544 H       1  <0>         0.0646
     29 H11         5.0929    2.5423   18.5300 H       1  <0>         0.0785
     30 H12         8.0959    4.6154   18.1546 H       1  <0>         0.0362
     31 H13         6.8785    5.7004   18.8897 H       1  <0>         0.0362
     32 H14         5.0972    1.1261   20.5480 H       1  <0>         0.1530
@<TRIPOS>BOND
     1     1    18    1
     2     2     4   ar
     3     2     5   ar
     4     3     6   ar
     5     3     7   ar
     6     4    11   ar
     7     5    12   ar
     8     6    13   ar
     9     7    17   ar
    10     8    11   ar
    11     8    12   ar
    12     9    14    2
    13     9    16    1
    14    10    11    1
    15    10    14    1
    16    12    18    1
    17    13    14    1
    18    13    15   ar
    19    15    16    1
    20    15    17   ar
    21     1    19    1
    22     1    20    1
    23     1    21    1
    24     2    22    1
    25     3    23    1
    26     4    24    1
    27     5    25    1
    28     6    26    1
    29     7    27    1
    30     8    28    1
    31     9    29    1
    32    10    30    1
    33    10    31    1
    34    16    32    1
@<TRIPOS>SUBSTRUCTURE
     1 <0>         1 TEMP              0 ****  ****    0 ROOT

