
##########                                Name:        D2B_187_3NXO
##########                    Molecular_Weight:             326.398
##########                DOCK_Rotatable_Bonds:                   5
##########                       Formal_Charge:         0.000600189
##########                     HBond_Acceptors:                   6
##########                        HBond_Donors:                   4
##########                         Heavy_Atoms:                  24
##########                            HA_RMSDs:               0.311
##########                            HA_RMSDh:               0.311
##########                            HA_RMSDm:               0.311
##########                          Grid_Score:          -34.287922
##########                     Grid_vdw_energy:          -34.007504
##########                      Grid_es_energy:           -0.280418
##########           Internal_energy_repulsive:           17.001312

@<TRIPOS>MOLECULE
D2B_187_3NXO
 46 48 1 0 0
SMALL
USER_CHARGES


@<TRIPOS>ATOM
      1 C1         15.3794    5.4237   -4.6120 C.3     1  <0>        -0.0621
      2 C2         15.8567    7.8231   -3.7461 C.3     1  <0>        -0.0621
      3 C3         13.9578    2.2011   -3.0182 C.3     1  <0>         0.0430
      4 C4         11.1515    6.3970   -2.0128 C.ar    1  <0>        -0.0613
      5 C5         10.8158    5.0371   -2.0499 C.ar    1  <0>        -0.0593
      6 C6         12.5010    6.7628   -2.0075 C.ar    1  <0>        -0.0558
      7 C7         11.8054    4.0537   -2.1290 C.ar    1  <0>        -0.0314
      8 C8         14.7314    5.1121    0.7803 C.2     1  <0>         0.0527
      9 C9         15.8767    6.1537   -1.1667 C.3     1  <0>        -0.0179
     10 C10        13.5051    5.7867   -2.0362 C.ar    1  <0>        -0.0138
     11 C11        13.1740    4.4207   -2.1660 C.ar    1  <0>         0.0793
     12 C12        15.6902    5.8774    0.2120 C.2     1  <0>        -0.0091
     13 C13        16.5998    6.2656    1.2374 C.ar    1  <0>         0.0692
     14 C14        17.7422    7.0983    1.3977 C.ar    1  <0>         0.1314
     15 C15        16.0207    5.8286    2.4125 C.ar    1  <0>         0.1866
     16 C16        17.6074    6.8785    3.6878 C.ar    1  <0>         0.2166
     17 C17        15.0417    6.5948   -3.6262 C.3     1  <0>        -0.0395
     18 C18        14.8422    6.1747   -2.1373 C.3     1  <0>        -0.0070
     19 N1         18.3974    7.7018    0.3910 N.pl3   1  <0>        -0.3425
     20 N2         18.0454    7.1792    4.9103 N.pl3   1  <0>        -0.3274
     21 N3         18.1979    7.4340    2.6356 N.ar    1  <0>        -0.1994
     22 N4         16.5484    5.9973    3.6151 N.ar    1  <0>        -0.1897
     23 O1         14.9395    5.0169    2.1955 O.3     1  <0>        -0.2976
     24 O2         14.1800    3.4651   -2.2443 O.3     1  <0>        -0.3476
     25 H1         14.7056    4.5758   -4.4194 H       1  <0>         0.0233
     26 H2         15.2484    5.7679   -5.6485 H       1  <0>         0.0233
     27 H3         16.4214    5.1057   -4.4600 H       1  <0>         0.0233
     28 H4         15.5204    8.5610   -3.0030 H       1  <0>         0.0233
     29 H5         16.9146    7.5798   -3.5681 H       1  <0>         0.0233
     30 H6         15.7417    8.2421   -4.7566 H       1  <0>         0.0233
     31 H7         14.8603    1.5743   -2.9648 H       1  <0>         0.0529
     32 H8         13.1056    1.6537   -2.5893 H       1  <0>         0.0529
     33 H9         13.7442    2.4473   -4.0688 H       1  <0>         0.0529
     34 H10        10.3793    7.1516   -1.9887 H       1  <0>         0.0618
     35 H11         9.7767    4.7446   -2.0168 H       1  <0>         0.0618
     36 H12        12.7718    7.8081   -1.9811 H       1  <0>         0.0621
     37 H13        11.5267    3.0108   -2.1621 H       1  <0>         0.0643
     38 H14        13.9224    4.6390    0.2435 H       1  <0>         0.0894
     39 H15        16.3016    7.1680   -1.1916 H       1  <0>         0.0320
     40 H16        16.5687    5.3729   -1.5153 H       1  <0>         0.0320
     41 H17        14.0505    6.8834   -4.0058 H       1  <0>         0.0301
     42 H18        15.3381    6.2900   -1.1622 H       1  <0>         0.0355
     43 H19        19.1104    8.2949    0.7649 H       1  <0>         0.1437
     44 H20        18.8146    7.0093   -0.1974 H       1  <0>         0.1437
     45 H21        18.8069    7.8240    4.8428 H       1  <0>         0.1452
     46 H22        17.3035    7.5938    5.4374 H       1  <0>         0.1452
@<TRIPOS>BOND
     1     1    17    1
     2     2    17    1
     3     3    24    1
     4     4     5   ar
     5     4     6   ar
     6     5     7   ar
     7     6    10   ar
     8     7    11   ar
     9     8    12    2
    10     8    23    1
    11     9    12    1
    12     9    18    1
    13    10    11   ar
    14    10    18    1
    15    11    24    1
    16    12    13    1
    17    13    14   ar
    18    13    15   ar
    19    14    19    1
    20    14    21   ar
    21    15    22   ar
    22    15    23    1
    23    16    20    1
    24    16    21   ar
    25    16    22   ar
    26    17    18    1
    27     1    25    1
    28     1    26    1
    29     1    27    1
    30     2    28    1
    31     2    29    1
    32     2    30    1
    33     3    31    1
    34     3    32    1
    35     3    33    1
    36     4    34    1
    37     5    35    1
    38     6    36    1
    39     7    37    1
    40     8    38    1
    41     9    39    1
    42     9    40    1
    43    17    41    1
    44    18    42    1
    45    19    43    1
    46    19    44    1
    47    20    45    1
    48    20    46    1
@<TRIPOS>SUBSTRUCTURE
     1 <0>         1 TEMP              0 ****  ****    0 ROOT

