
##########                                Name:          A49_2_3FRJ
##########                    Molecular_Weight:             454.513
##########                DOCK_Rotatable_Bonds:                  11
##########                       Formal_Charge:              0.9997
##########                     HBond_Acceptors:                   9
##########                        HBond_Donors:                   4
##########                         Heavy_Atoms:                  32
##########                            HA_RMSDs:               0.255
##########                            HA_RMSDh:               0.255
##########                            HA_RMSDm:               0.255
##########                          Grid_Score:         -113.908051
##########                     Grid_vdw_energy:          -65.865746
##########                      Grid_es_energy:          -48.042301
##########           Internal_energy_repulsive:           24.708275

@<TRIPOS>MOLECULE
A49_2_3FRJ
 63 66 1 0 0
SMALL
USER_CHARGES


@<TRIPOS>ATOM
      1 C1         51.1905   28.7749   41.8123 C.3     1  <0>        -0.0233
      2 C2         53.0028   24.7968   41.8596 C.ar    1  <0>        -0.0493
      3 C3         51.1038   24.2941   40.4236 C.ar    1  <0>        -0.0493
      4 C4         52.7987   26.1696   41.6741 C.ar    1  <0>        -0.0549
      5 C5         50.9147   25.6329   40.1832 C.ar    1  <0>        -0.0549
      6 C6         51.4095   19.4336   40.7691 C.3     1  <0>        -0.0326
      7 C7         52.3109   19.2578   39.5763 C.3     1  <0>        -0.0326
      8 C8         55.2230   21.3673   39.8839 C.3     1  <0>         0.0063
      9 C9         53.3452   22.3117   38.3408 C.3     1  <0>         0.0063
     10 C10        58.9483   22.5012   37.8397 C.3     1  <0>        -0.0330
     11 C11        59.0845   23.0881   36.4274 C.3     1  <0>        -0.0330
     12 C12        56.1799   22.2164   39.0547 C.3     1  <0>        -0.0301
     13 C13        54.4218   22.9555   37.5121 C.3     1  <0>        -0.0301
     14 C14        56.6286   22.7848   36.6884 C.3     1  <0>        -0.0177
     15 C15        52.1688   23.8745   41.2470 C.ar    1  <0>         0.0369
     16 C16        51.7498   26.5607   40.8077 C.ar    1  <0>        -0.0077
     17 C17        52.8163   20.0275   40.8058 C.3     1  <0>         0.0267
     18 C18        53.8757   22.0964   39.7922 C.3     1  <0>         0.0362
     19 C19        52.2497   22.3945   41.4754 C.2     1  <0>         0.2471
     20 C20        58.1203   20.7425   36.1263 C.2     1  <0>         0.2218
     21 C21        57.9692   22.1077   36.7650 C.3     1  <0>         0.0864
     22 C22        51.4837   28.0148   40.5249 C.3     1  <0>         0.1828
     23 C23        52.6919   28.5887   39.8079 C.3     1  <0>         0.4221
     24 N1         59.3046   20.2214   36.0845 N.am    1  <0>        -0.3287
     25 N2         55.6689   22.1662   37.6229 N.4     1  <0>         0.2361
     26 N3         52.7602   21.5015   40.4935 N.am    1  <0>        -0.2911
     27 O1         50.3778   28.1449   39.6077 O.3     1  <0>        -0.3758
     28 O2         51.6515   21.9511   42.4551 O.2     1  <0>        -0.2700
     29 O3         57.1366   20.1106   35.7445 O.2     1  <0>        -0.2752
     30 F1         53.0794   27.7519   38.8723 F       1  <0>        -0.1673
     31 F2         53.7356   28.8048   40.5973 F       1  <0>        -0.1673
     32 F3         52.2133   29.6816   39.2933 F       1  <0>        -0.1673
     33 H1         50.9999   29.8329   41.5789 H       1  <0>         0.0263
     34 H2         50.3047   28.3419   42.3000 H       1  <0>         0.0263
     35 H3         52.0552   28.6987   42.4880 H       1  <0>         0.0263
     36 H4         53.8149   24.4545   42.4838 H       1  <0>         0.0625
     37 H5         50.4392   23.5654   39.9836 H       1  <0>         0.0625
     38 H6         53.4173   26.9013   42.1725 H       1  <0>         0.0621
     39 H7         50.1297   25.9637   39.5194 H       1  <0>         0.0621
     40 H8         50.4271   19.9211   40.8549 H       1  <0>         0.0284
     41 H9         50.9343   18.6851   41.4202 H       1  <0>         0.0284
     42 H10        52.6927   18.3463   39.0932 H       1  <0>         0.0284
     43 H11        52.1881   19.5764   38.5306 H       1  <0>         0.0284
     44 H12        55.1489   20.3465   39.4808 H       1  <0>         0.0335
     45 H13        55.5626   21.2930   40.9275 H       1  <0>         0.0335
     46 H14        52.4595   22.9635   38.3651 H       1  <0>         0.0335
     47 H15        53.0720   21.3413   37.9005 H       1  <0>         0.0335
     48 H16        59.6444   21.8934   38.4365 H       1  <0>         0.0277
     49 H17        58.7913   22.9928   38.8112 H       1  <0>         0.0277
     50 H18        59.0566   24.1261   36.0642 H       1  <0>         0.0277
     51 H19        59.9018   23.0369   35.6930 H       1  <0>         0.0277
     52 H20        56.1930   23.2528   39.4229 H       1  <0>         0.0815
     53 H21        57.2018   21.8137   39.1134 H       1  <0>         0.0815
     54 H22        54.1027   22.9908   36.4599 H       1  <0>         0.0815
     55 H23        54.6018   23.9780   37.8753 H       1  <0>         0.0815
     56 H24        56.7489   23.8463   36.9506 H       1  <0>         0.0825
     57 H25        56.2396   22.6925   35.6637 H       1  <0>         0.0825
     58 H26        53.6734   19.9691   41.4928 H       1  <0>         0.0501
     59 H27        54.1700   23.0388   40.2773 H       1  <0>         0.0504
     60 H28        59.4298   19.2918   35.7380 H       1  <0>         0.1449
     61 H29        60.0942   20.7485   36.3987 H       1  <0>         0.1449
     62 H30        55.5284   21.2027   37.3950 H       1  <0>         0.2034
     63 H31        50.7066   28.1776   38.7170 H       1  <0>         0.2110
@<TRIPOS>BOND
     1     1    22    1
     2     2     4   ar
     3     2    15   ar
     4     3     5   ar
     5     3    15   ar
     6     4    16   ar
     7     5    16   ar
     8     6     7    1
     9     6    17    1
    10     7    17    1
    11     8    12    1
    12     8    18    1
    13     9    13    1
    14     9    18    1
    15    10    11    1
    16    10    21    1
    17    11    21    1
    18    12    25    1
    19    13    25    1
    20    14    21    1
    21    14    25    1
    22    15    19    1
    23    16    22    1
    24    17    26    1
    25    18    26    1
    26    19    26   am
    27    19    28    2
    28    20    21    1
    29    20    24   am
    30    20    29    2
    31    22    23    1
    32    22    27    1
    33    23    30    1
    34    23    31    1
    35    23    32    1
    36     1    33    1
    37     1    34    1
    38     1    35    1
    39     2    36    1
    40     3    37    1
    41     4    38    1
    42     5    39    1
    43     6    40    1
    44     6    41    1
    45     7    42    1
    46     7    43    1
    47     8    44    1
    48     8    45    1
    49     9    46    1
    50     9    47    1
    51    10    48    1
    52    10    49    1
    53    11    50    1
    54    11    51    1
    55    12    52    1
    56    12    53    1
    57    13    54    1
    58    13    55    1
    59    14    56    1
    60    14    57    1
    61    17    58    1
    62    18    59    1
    63    24    60    1
    64    24    61    1
    65    25    62    1
    66    27    63    1
@<TRIPOS>SUBSTRUCTURE
     1 <0>         1 TEMP              0 ****  ****    0 ROOT

