
##########                                Name:          A49_2_3FRJ
##########                    Molecular_Weight:             454.513
##########                DOCK_Rotatable_Bonds:                  11
##########                       Formal_Charge:              0.9997
##########                     HBond_Acceptors:                   9
##########                        HBond_Donors:                   4
##########                         Heavy_Atoms:                  32
##########                            HA_RMSDs:               0.307
##########                            HA_RMSDh:               0.307
##########                            HA_RMSDm:               0.307
##########                          Grid_Score:         -115.094322
##########                     Grid_vdw_energy:          -67.283997
##########                      Grid_es_energy:          -47.810326
##########           Internal_energy_repulsive:           24.345768

@<TRIPOS>MOLECULE
A49_2_3FRJ
 63 66 1 0 0
SMALL
USER_CHARGES


@<TRIPOS>ATOM
      1 C1         51.4504   28.9731   41.9452 C.3     1  <0>        -0.0233
      2 C2         53.0104   24.9759   41.9837 C.ar    1  <0>        -0.0493
      3 C3         51.4158   24.5268   40.2014 C.ar    1  <0>        -0.0493
      4 C4         52.7857   26.3523   41.8582 C.ar    1  <0>        -0.0549
      5 C5         51.2168   25.8737   40.0224 C.ar    1  <0>        -0.0549
      6 C6         51.6418   19.6734   40.4760 C.3     1  <0>        -0.0326
      7 C7         52.5055   19.5756   39.2468 C.3     1  <0>        -0.0326
      8 C8         55.4586   21.7451   39.7645 C.3     1  <0>         0.0063
      9 C9         53.6010   22.6309   38.1632 C.3     1  <0>         0.0063
     10 C10        59.3610   22.8746   37.4669 C.3     1  <0>        -0.0330
     11 C11        59.3260   23.3778   36.0166 C.3     1  <0>        -0.0330
     12 C12        56.4082   22.6468   38.9839 C.3     1  <0>        -0.0301
     13 C13        54.6791   23.3326   37.3849 C.3     1  <0>        -0.0301
     14 C14        56.9207   23.2691   36.6443 C.3     1  <0>        -0.0177
     15 C15        52.3358   24.0780   41.1711 C.ar    1  <0>         0.0369
     16 C16        51.8902   26.7762   40.8472 C.ar    1  <0>        -0.0077
     17 C17        53.0456   20.2749   40.5033 C.3     1  <0>         0.0267
     18 C18        54.0853   22.4170   39.6309 C.3     1  <0>         0.0362
     19 C19        52.4363   22.5881   41.3095 C.2     1  <0>         0.2471
     20 C20        58.1772   21.0970   35.9995 C.2     1  <0>         0.2218
     21 C21        58.2109   22.5001   36.5692 C.3     1  <0>         0.0864
     22 C22        51.6183   28.2391   40.6206 C.3     1  <0>         0.1828
     23 C23        52.7649   28.8163   39.8111 C.3     1  <0>         0.4221
     24 N1         59.2808   20.6058   35.5344 N.am    1  <0>        -0.3287
     25 N2         55.9543   22.5960   37.5330 N.4     1  <0>         0.2361
     26 N3         52.9710   21.7644   40.2810 N.am    1  <0>        -0.2911
     27 O1         50.4368   28.4016   39.8089 O.3     1  <0>        -0.3758
     28 O2         51.8339   22.0769   42.2530 O.2     1  <0>        -0.2700
     29 O3         57.1566   20.4135   36.0622 O.2     1  <0>        -0.2752
     30 F1         52.9654   28.0695   38.7490 F       1  <0>        -0.1673
     31 F2         53.9142   28.8768   40.4704 F       1  <0>        -0.1673
     32 F3         52.3085   29.9879   39.4836 F       1  <0>        -0.1673
     33 H1         51.2531   30.0380   41.7525 H       1  <0>         0.0263
     34 H2         50.6062   28.5385   42.5005 H       1  <0>         0.0263
     35 H3         52.3709   28.8725   42.5391 H       1  <0>         0.0263
     36 H4         53.7136   24.6117   42.7180 H       1  <0>         0.0625
     37 H5         50.8696   23.8139   39.6016 H       1  <0>         0.0625
     38 H6         53.2763   27.0625   42.5073 H       1  <0>         0.0621
     39 H7         50.5478   26.2302   39.2532 H       1  <0>         0.0621
     40 H8         50.6600   20.1475   40.6217 H       1  <0>         0.0284
     41 H9         51.1922   18.8841   41.0962 H       1  <0>         0.0284
     42 H10        52.8768   18.6972   38.6985 H       1  <0>         0.0284
     43 H11        52.3472   19.9546   38.2263 H       1  <0>         0.0284
     44 H12        55.4441   20.7282   39.3453 H       1  <0>         0.0335
     45 H13        55.7615   21.6699   40.8193 H       1  <0>         0.0335
     46 H14        52.6875   23.2437   38.1622 H       1  <0>         0.0335
     47 H15        53.3871   21.6563   37.7000 H       1  <0>         0.0335
     48 H16        60.0961   22.2484   37.9937 H       1  <0>         0.0277
     49 H17        59.3808   23.4250   38.4191 H       1  <0>         0.0277
     50 H18        59.3128   24.3953   35.5988 H       1  <0>         0.0277
     51 H19        60.0215   23.2297   35.1772 H       1  <0>         0.0277
     52 H20        56.3624   23.6772   39.3661 H       1  <0>         0.0815
     53 H21        57.4438   22.2875   39.0764 H       1  <0>         0.0815
     54 H22        54.3987   23.3698   36.3219 H       1  <0>         0.0815
     55 H23        54.8006   24.3564   37.7684 H       1  <0>         0.0815
     56 H24        57.1268   24.2755   37.0375 H       1  <0>         0.0825
     57 H25        56.4883   23.3410   35.6354 H       1  <0>         0.0825
     58 H26        53.9247   20.1825   41.1580 H       1  <0>         0.0501
     59 H27        54.3198   23.3638   40.1394 H       1  <0>         0.0504
     60 H28        59.3123   19.6573   35.2193 H       1  <0>         0.1449
     61 H29        60.1019   21.1748   35.4901 H       1  <0>         0.1449
     62 H30        55.8645   21.6308   37.2872 H       1  <0>         0.2034
     63 H31        50.5209   27.8809   39.0187 H       1  <0>         0.2110
@<TRIPOS>BOND
     1     1    22    1
     2     2     4   ar
     3     2    15   ar
     4     3     5   ar
     5     3    15   ar
     6     4    16   ar
     7     5    16   ar
     8     6     7    1
     9     6    17    1
    10     7    17    1
    11     8    12    1
    12     8    18    1
    13     9    13    1
    14     9    18    1
    15    10    11    1
    16    10    21    1
    17    11    21    1
    18    12    25    1
    19    13    25    1
    20    14    21    1
    21    14    25    1
    22    15    19    1
    23    16    22    1
    24    17    26    1
    25    18    26    1
    26    19    26   am
    27    19    28    2
    28    20    21    1
    29    20    24   am
    30    20    29    2
    31    22    23    1
    32    22    27    1
    33    23    30    1
    34    23    31    1
    35    23    32    1
    36     1    33    1
    37     1    34    1
    38     1    35    1
    39     2    36    1
    40     3    37    1
    41     4    38    1
    42     5    39    1
    43     6    40    1
    44     6    41    1
    45     7    42    1
    46     7    43    1
    47     8    44    1
    48     8    45    1
    49     9    46    1
    50     9    47    1
    51    10    48    1
    52    10    49    1
    53    11    50    1
    54    11    51    1
    55    12    52    1
    56    12    53    1
    57    13    54    1
    58    13    55    1
    59    14    56    1
    60    14    57    1
    61    17    58    1
    62    18    59    1
    63    24    60    1
    64    24    61    1
    65    25    62    1
    66    27    63    1
@<TRIPOS>SUBSTRUCTURE
     1 <0>         1 TEMP              0 ****  ****    0 ROOT

