
##########                                Name:          A49_2_3FRJ
##########                    Molecular_Weight:             454.513
##########                DOCK_Rotatable_Bonds:                  11
##########                       Formal_Charge:              0.9997
##########                     HBond_Acceptors:                   9
##########                        HBond_Donors:                   4
##########                         Heavy_Atoms:                  32
##########                            HA_RMSDs:               0.425
##########                            HA_RMSDh:               0.425
##########                            HA_RMSDm:               0.425
##########                          Grid_Score:         -113.261360
##########                     Grid_vdw_energy:          -65.216728
##########                      Grid_es_energy:          -48.044632
##########           Internal_energy_repulsive:           25.088753

@<TRIPOS>MOLECULE
A49_2_3FRJ
 63 66 1 0 0
SMALL
USER_CHARGES


@<TRIPOS>ATOM
      1 C1         51.0567   29.0280   41.9297 C.3     1  <0>        -0.0233
      2 C2         52.6664   25.0280   42.0828 C.ar    1  <0>        -0.0493
      3 C3         51.2798   24.6392   40.1214 C.ar    1  <0>        -0.0493
      4 C4         52.4762   26.4099   41.9618 C.ar    1  <0>        -0.0549
      5 C5         51.1209   25.9923   39.9495 C.ar    1  <0>        -0.0549
      6 C6         51.2900   19.7921   40.4915 C.3     1  <0>        -0.0326
      7 C7         52.0979   19.6839   39.2258 C.3     1  <0>        -0.0326
      8 C8         55.1780   21.7938   39.8282 C.3     1  <0>         0.0063
      9 C9         53.3811   22.6878   38.1635 C.3     1  <0>         0.0063
     10 C10        59.1351   22.7427   37.6542 C.3     1  <0>        -0.0330
     11 C11        59.1897   23.3466   36.2435 C.3     1  <0>        -0.0330
     12 C12        56.1613   22.6800   39.0719 C.3     1  <0>        -0.0301
     13 C13        54.4906   23.3727   37.4148 C.3     1  <0>        -0.0301
     14 C14        56.7534   23.2805   36.7454 C.3     1  <0>        -0.0177
     15 C15        52.0769   24.1569   41.1798 C.ar    1  <0>         0.0369
     16 C16        51.7079   26.8677   40.8645 C.ar    1  <0>        -0.0077
     17 C17        52.7122   20.3489   40.4668 C.3     1  <0>         0.0267
     18 C18        53.8169   22.4791   39.6470 C.3     1  <0>         0.0362
     19 C19        52.1407   22.6632   41.2971 C.2     1  <0>         0.2471
     20 C20        57.9701   21.1151   36.0086 C.2     1  <0>         0.2218
     21 C21        58.0204   22.4730   36.6778 C.3     1  <0>         0.0864
     22 C22        51.4835   28.3389   40.6395 C.3     1  <0>         0.1828
     23 C23        52.7662   28.9375   40.0924 C.3     1  <0>         0.4221
     24 N1         59.0918   20.5666   35.6671 N.am    1  <0>        -0.3287
     25 N2         55.7525   22.6238   37.6078 N.4     1  <0>         0.2361
     26 N3         52.6758   21.8428   40.2662 N.am    1  <0>        -0.2911
     27 O1         50.4849   28.5352   39.6171 O.3     1  <0>        -0.3758
     28 O2         51.5090   22.1521   42.2212 O.2     1  <0>        -0.2700
     29 O3         56.9055   20.5130   35.8789 O.2     1  <0>        -0.2752
     30 F1         53.1064   28.3038   38.9930 F       1  <0>        -0.1673
     31 F2         53.7961   28.8595   40.9244 F       1  <0>        -0.1673
     32 F3         52.4129   30.1621   39.8398 F       1  <0>        -0.1673
     33 H1         50.8994   30.0998   41.7389 H       1  <0>         0.0263
     34 H2         50.1203   28.5790   42.2924 H       1  <0>         0.0263
     35 H3         51.8422   28.9023   42.6895 H       1  <0>         0.0263
     36 H4         53.2761   24.6383   42.8846 H       1  <0>         0.0625
     37 H5         50.7960   23.9469   39.4482 H       1  <0>         0.0625
     38 H6         52.8991   27.0994   42.6775 H       1  <0>         0.0621
     39 H7         50.5490   26.3743   39.1168 H       1  <0>         0.0621
     40 H8         50.3307   20.2946   40.6844 H       1  <0>         0.0284
     41 H9         50.8418   19.0089   41.1204 H       1  <0>         0.0284
     42 H10        52.4177   18.8019   38.6516 H       1  <0>         0.0284
     43 H11        51.9092   20.0815   38.2177 H       1  <0>         0.0284
     44 H12        55.1658   20.7742   39.4156 H       1  <0>         0.0335
     45 H13        55.4469   21.7228   40.8925 H       1  <0>         0.0335
     46 H14        52.4748   23.3102   38.1297 H       1  <0>         0.0335
     47 H15        53.1714   21.7124   37.7003 H       1  <0>         0.0335
     48 H16        59.8220   22.0554   38.1698 H       1  <0>         0.0277
     49 H17        59.1245   23.2244   38.6431 H       1  <0>         0.0277
     50 H18        59.2305   24.3905   35.8992 H       1  <0>         0.0277
     51 H19        59.9215   23.2325   35.4301 H       1  <0>         0.0277
     52 H20        56.1145   23.7135   39.4455 H       1  <0>         0.0815
     53 H21        57.1895   22.3105   39.1992 H       1  <0>         0.0815
     54 H22        54.2440   23.4055   36.3433 H       1  <0>         0.0815
     55 H23        54.6110   24.3979   37.7951 H       1  <0>         0.0815
     56 H24        56.9843   24.2736   37.1583 H       1  <0>         0.0825
     57 H25        56.3399   23.3819   35.7312 H       1  <0>         0.0825
     58 H26        53.6145   20.2201   41.0826 H       1  <0>         0.0501
     59 H27        54.0455   23.4270   40.1564 H       1  <0>         0.0504
     60 H28        59.1014   19.6399   35.2914 H       1  <0>         0.1449
     61 H29        59.9489   21.0696   35.7789 H       1  <0>         0.1449
     62 H30        55.6601   21.6580   37.3657 H       1  <0>         0.2034
     63 H31        50.7409   28.0686   38.8301 H       1  <0>         0.2110
@<TRIPOS>BOND
     1     1    22    1
     2     2     4   ar
     3     2    15   ar
     4     3     5   ar
     5     3    15   ar
     6     4    16   ar
     7     5    16   ar
     8     6     7    1
     9     6    17    1
    10     7    17    1
    11     8    12    1
    12     8    18    1
    13     9    13    1
    14     9    18    1
    15    10    11    1
    16    10    21    1
    17    11    21    1
    18    12    25    1
    19    13    25    1
    20    14    21    1
    21    14    25    1
    22    15    19    1
    23    16    22    1
    24    17    26    1
    25    18    26    1
    26    19    26   am
    27    19    28    2
    28    20    21    1
    29    20    24   am
    30    20    29    2
    31    22    23    1
    32    22    27    1
    33    23    30    1
    34    23    31    1
    35    23    32    1
    36     1    33    1
    37     1    34    1
    38     1    35    1
    39     2    36    1
    40     3    37    1
    41     4    38    1
    42     5    39    1
    43     6    40    1
    44     6    41    1
    45     7    42    1
    46     7    43    1
    47     8    44    1
    48     8    45    1
    49     9    46    1
    50     9    47    1
    51    10    48    1
    52    10    49    1
    53    11    50    1
    54    11    51    1
    55    12    52    1
    56    12    53    1
    57    13    54    1
    58    13    55    1
    59    14    56    1
    60    14    57    1
    61    17    58    1
    62    18    59    1
    63    24    60    1
    64    24    61    1
    65    25    62    1
    66    27    63    1
@<TRIPOS>SUBSTRUCTURE
     1 <0>         1 TEMP              0 ****  ****    0 ROOT

