
##########                                Name:          A49_2_3FRJ
##########                    Molecular_Weight:             454.513
##########                DOCK_Rotatable_Bonds:                  11
##########                       Formal_Charge:              0.9997
##########                     HBond_Acceptors:                   9
##########                        HBond_Donors:                   4
##########                         Heavy_Atoms:                  32
##########                            HA_RMSDs:               0.270
##########                            HA_RMSDh:               0.270
##########                            HA_RMSDm:               0.270
##########                          Grid_Score:         -115.066406
##########                     Grid_vdw_energy:          -67.261650
##########                      Grid_es_energy:          -47.804756
##########           Internal_energy_repulsive:           24.362267

@<TRIPOS>MOLECULE
A49_2_3FRJ
 63 66 1 0 0
SMALL
USER_CHARGES


@<TRIPOS>ATOM
      1 C1         51.1809   28.8565   41.9176 C.3     1  <0>        -0.0233
      2 C2         52.8900   24.8863   41.9835 C.ar    1  <0>        -0.0493
      3 C3         51.2833   24.4312   40.2136 C.ar    1  <0>        -0.0493
      4 C4         52.6689   26.2626   41.8508 C.ar    1  <0>        -0.0549
      5 C5         51.0875   25.7776   40.0274 C.ar    1  <0>        -0.0549
      6 C6         51.4795   19.5834   40.5575 C.3     1  <0>        -0.0326
      7 C7         52.2947   19.4694   39.2970 C.3     1  <0>        -0.0326
      8 C8         55.2906   21.6250   39.7239 C.3     1  <0>         0.0063
      9 C9         53.4044   22.5182   38.1607 C.3     1  <0>         0.0063
     10 C10        59.0953   22.7411   37.5010 C.3     1  <0>        -0.0330
     11 C11        59.1267   23.3190   36.0788 C.3     1  <0>        -0.0330
     12 C12        56.2290   22.5177   38.9198 C.3     1  <0>        -0.0301
     13 C13        54.4699   23.2101   37.3567 C.3     1  <0>        -0.0301
     14 C14        56.6942   23.1290   36.5674 C.3     1  <0>        -0.0177
     15 C15        52.2078   23.9855   41.1805 C.ar    1  <0>         0.0369
     16 C16        51.7687   26.6831   40.8425 C.ar    1  <0>        -0.0077
     17 C17        52.8876   20.1746   40.5261 C.3     1  <0>         0.0267
     18 C18        53.9193   22.3057   39.6182 C.3     1  <0>         0.0362
     19 C19        52.3044   22.4961   41.3276 C.2     1  <0>         0.2471
     20 C20        58.0331   21.0196   35.8817 C.2     1  <0>         0.2218
     21 C21        58.0040   22.3912   36.5237 C.3     1  <0>         0.0864
     22 C22        51.5000   28.1454   40.6085 C.3     1  <0>         0.1828
     23 C23        52.7172   28.7506   39.9339 C.3     1  <0>         0.4221
     24 N1         59.1880   20.4748   35.6695 N.am    1  <0>        -0.3287
     25 N2         55.7430   22.4653   37.4794 N.4     1  <0>         0.2361
     26 N3         52.8152   21.6628   40.2948 N.am    1  <0>        -0.2911
     27 O1         50.4092   28.3039   39.6777 O.3     1  <0>        -0.3758
     28 O2         51.7185   21.9944   42.2864 O.2     1  <0>        -0.2700
     29 O3         56.9920   20.4051   35.6555 O.2     1  <0>        -0.2752
     30 F1         53.0020   28.0610   38.8526 F       1  <0>        -0.1673
     31 F2         53.8058   28.7590   40.6916 F       1  <0>        -0.1673
     32 F3         52.3011   29.9447   39.6348 F       1  <0>        -0.1673
     33 H1         50.9888   29.9214   41.7197 H       1  <0>         0.0263
     34 H2         50.2892   28.4019   42.3738 H       1  <0>         0.0263
     35 H3         52.0344   28.7595   42.6048 H       1  <0>         0.0263
     36 H4         53.5965   24.5244   42.7158 H       1  <0>         0.0625
     37 H5         50.7313   23.7163   39.6215 H       1  <0>         0.0625
     38 H6         53.1656   26.9752   42.4925 H       1  <0>         0.0621
     39 H7         50.4150   26.1314   39.2600 H       1  <0>         0.0621
     40 H8         50.5074   20.0659   40.7369 H       1  <0>         0.0284
     41 H9         51.0484   18.8024   41.2009 H       1  <0>         0.0284
     42 H10        52.6384   18.5840   38.7421 H       1  <0>         0.0284
     43 H11        52.1001   19.8415   38.2803 H       1  <0>         0.0284
     44 H12        55.2602   20.6068   39.3086 H       1  <0>         0.0335
     45 H13        55.6161   21.5511   40.7721 H       1  <0>         0.0335
     46 H14        52.4953   23.1372   38.1777 H       1  <0>         0.0335
     47 H15        53.1738   21.5436   37.7056 H       1  <0>         0.0335
     48 H16        59.8153   22.1030   38.0344 H       1  <0>         0.0277
     49 H17        59.0514   23.2410   38.4800 H       1  <0>         0.0277
     50 H18        59.1125   24.3566   35.7137 H       1  <0>         0.0277
     51 H19        59.8693   23.2292   35.2722 H       1  <0>         0.0277
     52 H20        56.1985   23.5496   39.2994 H       1  <0>         0.0815
     53 H21        57.2639   22.1517   38.9908 H       1  <0>         0.0815
     54 H22        54.1665   23.2458   36.3000 H       1  <0>         0.0815
     55 H23        54.6067   24.2343   37.7340 H       1  <0>         0.0815
     56 H24        56.8735   24.1545   36.9226 H       1  <0>         0.0825
     57 H25        56.2629   23.1516   35.5558 H       1  <0>         0.0825
     58 H26        53.7905   20.0808   41.1474 H       1  <0>         0.0501
     59 H27        54.1712   23.2526   40.1183 H       1  <0>         0.0504
     60 H28        59.2431   19.5409   35.3165 H       1  <0>         0.1449
     61 H29        60.0252   20.9880   35.8586 H       1  <0>         0.1449
     62 H30        55.6414   21.5000   37.2388 H       1  <0>         0.2034
     63 H31        50.6680   27.9716   38.8262 H       1  <0>         0.2110
@<TRIPOS>BOND
     1     1    22    1
     2     2     4   ar
     3     2    15   ar
     4     3     5   ar
     5     3    15   ar
     6     4    16   ar
     7     5    16   ar
     8     6     7    1
     9     6    17    1
    10     7    17    1
    11     8    12    1
    12     8    18    1
    13     9    13    1
    14     9    18    1
    15    10    11    1
    16    10    21    1
    17    11    21    1
    18    12    25    1
    19    13    25    1
    20    14    21    1
    21    14    25    1
    22    15    19    1
    23    16    22    1
    24    17    26    1
    25    18    26    1
    26    19    26   am
    27    19    28    2
    28    20    21    1
    29    20    24   am
    30    20    29    2
    31    22    23    1
    32    22    27    1
    33    23    30    1
    34    23    31    1
    35    23    32    1
    36     1    33    1
    37     1    34    1
    38     1    35    1
    39     2    36    1
    40     3    37    1
    41     4    38    1
    42     5    39    1
    43     6    40    1
    44     6    41    1
    45     7    42    1
    46     7    43    1
    47     8    44    1
    48     8    45    1
    49     9    46    1
    50     9    47    1
    51    10    48    1
    52    10    49    1
    53    11    50    1
    54    11    51    1
    55    12    52    1
    56    12    53    1
    57    13    54    1
    58    13    55    1
    59    14    56    1
    60    14    57    1
    61    17    58    1
    62    18    59    1
    63    24    60    1
    64    24    61    1
    65    25    62    1
    66    27    63    1
@<TRIPOS>SUBSTRUCTURE
     1 <0>         1 TEMP              0 ****  ****    0 ROOT

