
##########                                Name:          A49_2_3FRJ
##########                    Molecular_Weight:             454.513
##########                DOCK_Rotatable_Bonds:                  11
##########                       Formal_Charge:              0.9997
##########                     HBond_Acceptors:                   9
##########                        HBond_Donors:                   4
##########                         Heavy_Atoms:                  32
##########                            HA_RMSDs:               0.261
##########                            HA_RMSDh:               0.261
##########                            HA_RMSDm:               0.261
##########                          Grid_Score:         -114.234909
##########                     Grid_vdw_energy:          -66.311676
##########                      Grid_es_energy:          -47.923237
##########           Internal_energy_repulsive:           25.602962

@<TRIPOS>MOLECULE
A49_2_3FRJ
 63 66 1 0 0
SMALL
USER_CHARGES


@<TRIPOS>ATOM
      1 C1         51.4053   28.8736   41.8382 C.3     1  <0>        -0.0233
      2 C2         53.0264   24.8600   41.9748 C.ar    1  <0>        -0.0493
      3 C3         51.4198   24.4317   40.1981 C.ar    1  <0>        -0.0493
      4 C4         52.8492   26.2406   41.8225 C.ar    1  <0>        -0.0549
      5 C5         51.2674   25.7809   39.9930 C.ar    1  <0>        -0.0549
      6 C6         51.4551   19.5946   40.6659 C.3     1  <0>        -0.0326
      7 C7         52.2200   19.4322   39.3794 C.3     1  <0>        -0.0326
      8 C8         55.3462   21.5350   39.8201 C.3     1  <0>         0.0063
      9 C9         53.5061   22.3508   38.1626 C.3     1  <0>         0.0063
     10 C10        59.1624   22.6780   37.7876 C.3     1  <0>        -0.0330
     11 C11        59.2927   23.1496   36.3321 C.3     1  <0>        -0.0330
     12 C12        56.3107   22.3767   38.9922 C.3     1  <0>        -0.0301
     13 C13        54.5962   22.9913   37.3491 C.3     1  <0>        -0.0301
     14 C14        56.8390   22.8546   36.6223 C.3     1  <0>        -0.0177
     15 C15        52.3225   23.9702   41.1782 C.ar    1  <0>         0.0369
     16 C16        51.9702   26.6755   40.8017 C.ar    1  <0>        -0.0077
     17 C17        52.8823   20.1314   40.5761 C.3     1  <0>         0.0267
     18 C18        53.9827   22.2163   39.6421 C.3     1  <0>         0.0362
     19 C19        52.3716   22.4807   41.3453 C.2     1  <0>         0.2471
     20 C20        58.3416   20.7820   36.2237 C.2     1  <0>         0.2218
     21 C21        58.1837   22.1934   36.7503 C.3     1  <0>         0.0864
     22 C22        51.7490   28.1422   40.5466 C.3     1  <0>         0.1828
     23 C23        53.0040   28.7086   39.9086 C.3     1  <0>         0.4221
     24 N1         59.5215   20.4043   35.8484 N.am    1  <0>        -0.3287
     25 N2         55.8607   22.2475   37.5449 N.4     1  <0>         0.2361
     26 N3         52.8575   21.6178   40.3248 N.am    1  <0>        -0.2911
     27 O1         50.6948   28.3212   39.5782 O.3     1  <0>        -0.3758
     28 O2         51.7683   22.0107   42.3093 O.2     1  <0>        -0.2700
     29 O3         57.3991   19.9919   36.2397 O.2     1  <0>        -0.2752
     30 F1         53.3213   27.9858   38.8585 F       1  <0>        -0.1673
     31 F2         54.0600   28.7188   40.7111 F       1  <0>        -0.1673
     32 F3         52.6224   29.9012   39.5614 F       1  <0>        -0.1673
     33 H1         51.2487   29.9414   41.6252 H       1  <0>         0.0263
     34 H2         50.4868   28.4470   42.2677 H       1  <0>         0.0263
     35 H3         52.2323   28.7603   42.5547 H       1  <0>         0.0263
     36 H4         53.7156   24.4861   42.7174 H       1  <0>         0.0625
     37 H5         50.8503   23.7265   39.6110 H       1  <0>         0.0625
     38 H6         53.3630   26.9459   42.4589 H       1  <0>         0.0621
     39 H7         50.6121   26.1452   39.2157 H       1  <0>         0.0621
     40 H8         50.5087   20.1161   40.8718 H       1  <0>         0.0284
     41 H9         51.0181   18.8395   41.3358 H       1  <0>         0.0284
     42 H10        52.5103   18.5267   38.8264 H       1  <0>         0.0284
     43 H11        52.0034   19.7972   38.3646 H       1  <0>         0.0284
     44 H12        55.3192   20.4956   39.4609 H       1  <0>         0.0335
     45 H13        55.6447   21.5174   40.8787 H       1  <0>         0.0335
     46 H14        52.6011   22.9747   38.1223 H       1  <0>         0.0335
     47 H15        53.2803   21.3538   37.7561 H       1  <0>         0.0335
     48 H16        59.8631   22.1243   38.4299 H       1  <0>         0.0277
     49 H17        59.0042   23.2456   38.7165 H       1  <0>         0.0277
     50 H18        59.2581   24.1547   35.8863 H       1  <0>         0.0277
     51 H19        60.1090   23.0438   35.6024 H       1  <0>         0.0277
     52 H20        56.2777   23.4282   39.3134 H       1  <0>         0.0815
     53 H21        57.3409   22.0095   39.1095 H       1  <0>         0.0815
     54 H22        54.3197   22.9703   36.2845 H       1  <0>         0.0815
     55 H23        54.7305   24.0340   37.6727 H       1  <0>         0.0815
     56 H24        56.9418   23.9230   36.8629 H       1  <0>         0.0825
     57 H25        56.4788   22.7347   35.5900 H       1  <0>         0.0825
     58 H26        53.8026   20.0119   41.1667 H       1  <0>         0.0501
     59 H27        54.2285   23.1880   40.0955 H       1  <0>         0.0504
     60 H28        59.6773   19.4578   35.5659 H       1  <0>         0.1449
     61 H29        60.2773   21.0590   35.8410 H       1  <0>         0.1449
     62 H30        55.7585   21.2709   37.3554 H       1  <0>         0.2034
     63 H31        50.8678   27.7794   38.8172 H       1  <0>         0.2110
@<TRIPOS>BOND
     1     1    22    1
     2     2     4   ar
     3     2    15   ar
     4     3     5   ar
     5     3    15   ar
     6     4    16   ar
     7     5    16   ar
     8     6     7    1
     9     6    17    1
    10     7    17    1
    11     8    12    1
    12     8    18    1
    13     9    13    1
    14     9    18    1
    15    10    11    1
    16    10    21    1
    17    11    21    1
    18    12    25    1
    19    13    25    1
    20    14    21    1
    21    14    25    1
    22    15    19    1
    23    16    22    1
    24    17    26    1
    25    18    26    1
    26    19    26   am
    27    19    28    2
    28    20    21    1
    29    20    24   am
    30    20    29    2
    31    22    23    1
    32    22    27    1
    33    23    30    1
    34    23    31    1
    35    23    32    1
    36     1    33    1
    37     1    34    1
    38     1    35    1
    39     2    36    1
    40     3    37    1
    41     4    38    1
    42     5    39    1
    43     6    40    1
    44     6    41    1
    45     7    42    1
    46     7    43    1
    47     8    44    1
    48     8    45    1
    49     9    46    1
    50     9    47    1
    51    10    48    1
    52    10    49    1
    53    11    50    1
    54    11    51    1
    55    12    52    1
    56    12    53    1
    57    13    54    1
    58    13    55    1
    59    14    56    1
    60    14    57    1
    61    17    58    1
    62    18    59    1
    63    24    60    1
    64    24    61    1
    65    25    62    1
    66    27    63    1
@<TRIPOS>SUBSTRUCTURE
     1 <0>         1 TEMP              0 ****  ****    0 ROOT

