
##########                                Name:          A49_2_3FRJ
##########                    Molecular_Weight:             454.513
##########                DOCK_Rotatable_Bonds:                  11
##########                       Formal_Charge:              0.9997
##########                     HBond_Acceptors:                   9
##########                        HBond_Donors:                   4
##########                         Heavy_Atoms:                  32
##########                            HA_RMSDs:               0.309
##########                            HA_RMSDh:               0.309
##########                            HA_RMSDm:               0.309
##########                          Grid_Score:         -114.421898
##########                     Grid_vdw_energy:          -66.829086
##########                      Grid_es_energy:          -47.592812
##########           Internal_energy_repulsive:           24.870544

@<TRIPOS>MOLECULE
A49_2_3FRJ
 63 66 1 0 0
SMALL
USER_CHARGES


@<TRIPOS>ATOM
      1 C1         51.2615   28.7960   41.7166 C.3     1  <0>        -0.0233
      2 C2         53.1125   24.8892   41.8641 C.ar    1  <0>        -0.0493
      3 C3         51.5302   24.3493   40.0961 C.ar    1  <0>        -0.0493
      4 C4         52.8469   26.2548   41.7052 C.ar    1  <0>        -0.0549
      5 C5         51.2911   25.6849   39.8844 C.ar    1  <0>        -0.0549
      6 C6         51.8703   19.5276   40.5978 C.3     1  <0>        -0.0326
      7 C7         52.6291   19.4056   39.3032 C.3     1  <0>        -0.0326
      8 C8         55.6332   21.7527   39.7624 C.3     1  <0>         0.0063
      9 C9         53.7568   22.3144   38.0412 C.3     1  <0>         0.0063
     10 C10        59.5013   22.6497   37.3341 C.3     1  <0>        -0.0330
     11 C11        59.4607   23.1671   35.8890 C.3     1  <0>        -0.0330
     12 C12        56.5322   22.6371   38.9057 C.3     1  <0>        -0.0301
     13 C13        54.7988   23.0108   37.2108 C.3     1  <0>        -0.0301
     14 C14        57.0575   23.0437   36.5219 C.3     1  <0>        -0.0177
     15 C15        52.4641   23.9519   41.0749 C.ar    1  <0>         0.0369
     16 C16        51.9382   26.6270   40.6857 C.ar    1  <0>        -0.0077
     17 C17        53.2599   20.1525   40.4881 C.3     1  <0>         0.0267
     18 C18        54.2171   22.2972   39.5319 C.3     1  <0>         0.0362
     19 C19        52.6089   22.4695   41.2496 C.2     1  <0>         0.2471
     20 C20        58.3198   20.8825   35.8523 C.2     1  <0>         0.2218
     21 C21        58.3502   22.2800   36.4358 C.3     1  <0>         0.0864
     22 C22        51.6227   28.0752   40.4237 C.3     1  <0>         0.1828
     23 C23        52.8275   28.7111   39.7553 C.3     1  <0>         0.4221
     24 N1         59.4403   20.3648   35.4624 N.am    1  <0>        -0.3287
     25 N2         56.1217   22.3961   37.4610 N.4     1  <0>         0.2361
     26 N3         53.1386   21.6329   40.2290 N.am    1  <0>        -0.2911
     27 O1         50.5400   28.1809   39.4763 O.3     1  <0>        -0.3758
     28 O2         52.0459   21.9682   42.2222 O.2     1  <0>        -0.2700
     29 O3         57.2795   20.2266   35.8360 O.2     1  <0>        -0.2752
     30 F1         53.1215   28.0422   38.6635 F       1  <0>        -0.1673
     31 F2         53.9177   28.7275   40.5105 F       1  <0>        -0.1673
     32 F3         52.3901   29.9020   39.4744 F       1  <0>        -0.1673
     33 H1         51.0357   29.8503   41.4985 H       1  <0>         0.0263
     34 H2         50.3797   28.3183   42.1685 H       1  <0>         0.0263
     35 H3         52.1082   28.7397   42.4165 H       1  <0>         0.0263
     36 H4         53.8270   24.5641   42.6059 H       1  <0>         0.0625
     37 H5         51.0048   23.6060   39.5149 H       1  <0>         0.0625
     38 H6         53.3168   26.9950   42.3359 H       1  <0>         0.0621
     39 H7         50.6110   26.0023   39.1079 H       1  <0>         0.0621
     40 H8         50.8954   19.9899   40.8120 H       1  <0>         0.0284
     41 H9         51.4895   18.7507   41.2770 H       1  <0>         0.0284
     42 H10        52.9695   18.5168   38.7517 H       1  <0>         0.0284
     43 H11        52.3784   19.7501   38.2891 H       1  <0>         0.0284
     44 H12        55.7068   20.6988   39.4561 H       1  <0>         0.0335
     45 H13        55.9131   21.8147   40.8244 H       1  <0>         0.0335
     46 H14        52.7999   22.8504   37.9572 H       1  <0>         0.0335
     47 H15        53.6294   21.2822   37.6829 H       1  <0>         0.0335
     48 H16        60.2400   22.0208   37.8527 H       1  <0>         0.0277
     49 H17        59.5217   23.1906   38.2917 H       1  <0>         0.0277
     50 H18        59.4429   24.1886   35.4813 H       1  <0>         0.0277
     51 H19        60.1544   23.0297   35.0463 H       1  <0>         0.0277
     52 H20        56.3985   23.6957   39.1727 H       1  <0>         0.0815
     53 H21        57.5891   22.3717   39.0553 H       1  <0>         0.0815
     54 H22        54.5444   22.9122   36.1452 H       1  <0>         0.0815
     55 H23        54.8324   24.0761   37.4829 H       1  <0>         0.0815
     56 H24        57.2681   24.0642   36.8741 H       1  <0>         0.0825
     57 H25        56.5957   23.0781   35.5242 H       1  <0>         0.0825
     58 H26        54.1925   20.0949   41.0685 H       1  <0>         0.0501
     59 H27        54.3658   23.3084   39.9387 H       1  <0>         0.0504
     60 H28        59.4689   19.4181   35.1417 H       1  <0>         0.1449
     61 H29        60.2774   20.9115   35.4819 H       1  <0>         0.1449
     62 H30        56.1117   21.4061   37.3199 H       1  <0>         0.2034
     63 H31        50.7660   27.7103   38.6825 H       1  <0>         0.2110
@<TRIPOS>BOND
     1     1    22    1
     2     2     4   ar
     3     2    15   ar
     4     3     5   ar
     5     3    15   ar
     6     4    16   ar
     7     5    16   ar
     8     6     7    1
     9     6    17    1
    10     7    17    1
    11     8    12    1
    12     8    18    1
    13     9    13    1
    14     9    18    1
    15    10    11    1
    16    10    21    1
    17    11    21    1
    18    12    25    1
    19    13    25    1
    20    14    21    1
    21    14    25    1
    22    15    19    1
    23    16    22    1
    24    17    26    1
    25    18    26    1
    26    19    26   am
    27    19    28    2
    28    20    21    1
    29    20    24   am
    30    20    29    2
    31    22    23    1
    32    22    27    1
    33    23    30    1
    34    23    31    1
    35    23    32    1
    36     1    33    1
    37     1    34    1
    38     1    35    1
    39     2    36    1
    40     3    37    1
    41     4    38    1
    42     5    39    1
    43     6    40    1
    44     6    41    1
    45     7    42    1
    46     7    43    1
    47     8    44    1
    48     8    45    1
    49     9    46    1
    50     9    47    1
    51    10    48    1
    52    10    49    1
    53    11    50    1
    54    11    51    1
    55    12    52    1
    56    12    53    1
    57    13    54    1
    58    13    55    1
    59    14    56    1
    60    14    57    1
    61    17    58    1
    62    18    59    1
    63    24    60    1
    64    24    61    1
    65    25    62    1
    66    27    63    1
@<TRIPOS>SUBSTRUCTURE
     1 <0>         1 TEMP              0 ****  ****    0 ROOT

