
##########                                Name:          A49_2_3FRJ
##########                    Molecular_Weight:             454.513
##########                DOCK_Rotatable_Bonds:                  11
##########                       Formal_Charge:              0.9997
##########                     HBond_Acceptors:                   9
##########                        HBond_Donors:                   4
##########                         Heavy_Atoms:                  32
##########                            HA_RMSDs:               0.398
##########                            HA_RMSDh:               0.398
##########                            HA_RMSDm:               0.398
##########                          Grid_Score:         -114.146362
##########                     Grid_vdw_energy:          -66.186867
##########                      Grid_es_energy:          -47.959499
##########           Internal_energy_repulsive:           24.045242

@<TRIPOS>MOLECULE
A49_2_3FRJ
 63 66 1 0 0
SMALL
USER_CHARGES


@<TRIPOS>ATOM
      1 C1         51.4070   29.0499   41.7728 C.3     1  <0>        -0.0233
      2 C2         52.8347   25.0328   41.8430 C.ar    1  <0>        -0.0493
      3 C3         51.1256   24.5243   40.1873 C.ar    1  <0>        -0.0493
      4 C4         52.5947   26.4040   41.6914 C.ar    1  <0>        -0.0549
      5 C5         50.9079   25.8644   39.9814 C.ar    1  <0>        -0.0549
      6 C6         51.5163   19.6638   40.4014 C.3     1  <0>        -0.0326
      7 C7         52.4955   19.5657   39.2621 C.3     1  <0>        -0.0326
      8 C8         55.2908   21.7327   39.7571 C.3     1  <0>         0.0063
      9 C9         53.4440   22.7221   38.2048 C.3     1  <0>         0.0063
     10 C10        59.1687   22.8605   37.5777 C.3     1  <0>        -0.0330
     11 C11        59.1985   23.4815   36.1737 C.3     1  <0>        -0.0330
     12 C12        56.2555   22.6445   39.0073 C.3     1  <0>        -0.0301
     13 C13        54.5328   23.4313   37.4484 C.3     1  <0>        -0.0301
     14 C14        56.7682   23.3495   36.6913 C.3     1  <0>        -0.0177
     15 C15        52.1115   24.1083   41.1056 C.ar    1  <0>         0.0369
     16 C16        51.6307   26.7939   40.7309 C.ar    1  <0>        -0.0077
     17 C17        52.8962   20.3020   40.5494 C.3     1  <0>         0.0267
     18 C18        53.9318   22.4388   39.6595 C.3     1  <0>         0.0362
     19 C19        52.2289   22.6236   41.2819 C.2     1  <0>         0.2471
     20 C20        58.0327   21.2233   35.9214 C.2     1  <0>         0.2218
     21 C21        58.0542   22.5744   36.6058 C.3     1  <0>         0.0864
     22 C22        51.3364   28.2483   40.4791 C.3     1  <0>         0.1828
     23 C23        52.3303   28.7643   39.4550 C.3     1  <0>         0.4221
     24 N1         59.1625   20.7205   35.5387 N.am    1  <0>        -0.3287
     25 N2         55.7924   22.6621   37.5585 N.4     1  <0>         0.2361
     26 N3         52.8072   21.7846   40.2901 N.am    1  <0>        -0.2911
     27 O1         50.0336   28.3910   39.8761 O.3     1  <0>        -0.3758
     28 O2         51.6047   22.1253   42.2181 O.2     1  <0>        -0.2700
     29 O3         56.9872   20.5840   35.8169 O.2     1  <0>        -0.2752
     30 F1         52.1966   28.0841   38.3392 F       1  <0>        -0.1673
     31 F2         53.5978   28.6559   39.8307 F       1  <0>        -0.1673
     32 F3         51.9530   29.9983   39.3024 F       1  <0>        -0.1673
     33 H1         51.1885   30.1072   41.5621 H       1  <0>         0.0263
     34 H2         50.6680   28.6583   42.4874 H       1  <0>         0.0263
     35 H3         52.4155   28.9628   42.2034 H       1  <0>         0.0263
     36 H4         53.5879   24.6935   42.5387 H       1  <0>         0.0625
     37 H5         50.5438   23.7916   39.6478 H       1  <0>         0.0625
     38 H6         53.1244   27.1353   42.2839 H       1  <0>         0.0621
     39 H7         50.1865   26.1950   39.2489 H       1  <0>         0.0621
     40 H8         50.5139   20.1147   40.4434 H       1  <0>         0.0284
     41 H9         51.0287   18.8746   40.9925 H       1  <0>         0.0284
     42 H10        52.9385   18.6874   38.7700 H       1  <0>         0.0284
     43 H11        52.4263   19.9216   38.2236 H       1  <0>         0.0284
     44 H12        55.2519   20.7341   39.2975 H       1  <0>         0.0335
     45 H13        55.5979   21.6085   40.8060 H       1  <0>         0.0335
     46 H14        52.5441   23.3540   38.2344 H       1  <0>         0.0335
     47 H15        53.2063   21.7719   37.7041 H       1  <0>         0.0335
     48 H16        59.8761   22.1846   38.0806 H       1  <0>         0.0277
     49 H17        59.1533   23.3305   38.5721 H       1  <0>         0.0277
     50 H18        59.2111   24.5300   35.8411 H       1  <0>         0.0277
     51 H19        59.9271   23.3948   35.3541 H       1  <0>         0.0277
     52 H20        56.2342   23.6594   39.4308 H       1  <0>         0.0815
     53 H21        57.2835   22.2596   39.0785 H       1  <0>         0.0815
     54 H22        54.2473   23.5174   36.3896 H       1  <0>         0.0815
     55 H23        54.6787   24.4359   37.8719 H       1  <0>         0.0815
     56 H24        56.9782   24.3452   37.1090 H       1  <0>         0.0825
     57 H25        56.3424   23.4476   35.6819 H       1  <0>         0.0825
     58 H26        53.7107   20.2445   41.2864 H       1  <0>         0.0501
     59 H27        54.1897   23.3591   40.2041 H       1  <0>         0.0504
     60 H28        59.1941   19.7992   35.1512 H       1  <0>         0.1449
     61 H29        60.0037   21.2534   35.6305 H       1  <0>         0.1449
     62 H30        55.6802   21.7097   37.2746 H       1  <0>         0.2034
     63 H31        49.9618   27.8032   39.1332 H       1  <0>         0.2110
@<TRIPOS>BOND
     1     1    22    1
     2     2     4   ar
     3     2    15   ar
     4     3     5   ar
     5     3    15   ar
     6     4    16   ar
     7     5    16   ar
     8     6     7    1
     9     6    17    1
    10     7    17    1
    11     8    12    1
    12     8    18    1
    13     9    13    1
    14     9    18    1
    15    10    11    1
    16    10    21    1
    17    11    21    1
    18    12    25    1
    19    13    25    1
    20    14    21    1
    21    14    25    1
    22    15    19    1
    23    16    22    1
    24    17    26    1
    25    18    26    1
    26    19    26   am
    27    19    28    2
    28    20    21    1
    29    20    24   am
    30    20    29    2
    31    22    23    1
    32    22    27    1
    33    23    30    1
    34    23    31    1
    35    23    32    1
    36     1    33    1
    37     1    34    1
    38     1    35    1
    39     2    36    1
    40     3    37    1
    41     4    38    1
    42     5    39    1
    43     6    40    1
    44     6    41    1
    45     7    42    1
    46     7    43    1
    47     8    44    1
    48     8    45    1
    49     9    46    1
    50     9    47    1
    51    10    48    1
    52    10    49    1
    53    11    50    1
    54    11    51    1
    55    12    52    1
    56    12    53    1
    57    13    54    1
    58    13    55    1
    59    14    56    1
    60    14    57    1
    61    17    58    1
    62    18    59    1
    63    24    60    1
    64    24    61    1
    65    25    62    1
    66    27    63    1
@<TRIPOS>SUBSTRUCTURE
     1 <0>         1 TEMP              0 ****  ****    0 ROOT

