
##########                                Name:          A49_2_3FRJ
##########                    Molecular_Weight:             454.513
##########                DOCK_Rotatable_Bonds:                  11
##########                       Formal_Charge:              0.9997
##########                     HBond_Acceptors:                   9
##########                        HBond_Donors:                   4
##########                         Heavy_Atoms:                  32
##########                            HA_RMSDs:               0.341
##########                            HA_RMSDh:               0.341
##########                            HA_RMSDm:               0.341
##########                          Grid_Score:         -114.980583
##########                     Grid_vdw_energy:          -66.811493
##########                      Grid_es_energy:          -48.169090
##########           Internal_energy_repulsive:           24.851229

@<TRIPOS>MOLECULE
A49_2_3FRJ
 63 66 1 0 0
SMALL
USER_CHARGES


@<TRIPOS>ATOM
      1 C1         51.4070   28.7313   41.9379 C.3     1  <0>        -0.0233
      2 C2         52.8823   24.6909   41.8999 C.ar    1  <0>        -0.0493
      3 C3         51.3243   24.3516   40.0618 C.ar    1  <0>        -0.0493
      4 C4         52.7087   26.0774   41.8108 C.ar    1  <0>        -0.0549
      5 C5         51.1769   25.7094   39.9190 C.ar    1  <0>        -0.0549
      6 C6         51.4337   19.4973   40.2346 C.3     1  <0>        -0.0326
      7 C7         52.3184   19.4034   39.0201 C.3     1  <0>        -0.0326
      8 C8         55.3222   21.3438   39.5933 C.3     1  <0>         0.0063
      9 C9         53.5907   22.7206   38.2129 C.3     1  <0>         0.0063
     10 C10        59.3633   22.6523   37.6496 C.3     1  <0>        -0.0330
     11 C11        59.4027   23.3009   36.2583 C.3     1  <0>        -0.0330
     12 C12        56.3739   22.2677   38.9894 C.3     1  <0>        -0.0301
     13 C13        54.7478   23.4348   37.5715 C.3     1  <0>        -0.0301
     14 C14        56.9759   23.2667   36.8069 C.3     1  <0>        -0.0177
     15 C15        52.2005   23.8419   41.0419 C.ar    1  <0>         0.0369
     16 C16        51.8573   26.5626   40.7892 C.ar    1  <0>        -0.0077
     17 C17        52.8590   20.0417   40.3085 C.3     1  <0>         0.0267
     18 C18        54.0334   22.1768   39.6067 C.3     1  <0>         0.0362
     19 C19        52.2457   22.3459   41.1370 C.2     1  <0>         0.2471
     20 C20        58.1334   21.1029   35.9761 C.2     1  <0>         0.2218
     21 C21        58.2245   22.4369   36.6877 C.3     1  <0>         0.0864
     22 C22        51.6424   28.0403   40.6005 C.3     1  <0>         0.1828
     23 C23        52.8563   28.6107   39.8906 C.3     1  <0>         0.4221
     24 N1         59.2118   20.3934   35.8793 N.am    1  <0>        -0.3287
     25 N2         55.9318   22.5469   37.5610 N.4     1  <0>         0.2361
     26 N3         52.8470   21.5391   40.1323 N.am    1  <0>        -0.2911
     27 O1         50.5229   28.2676   39.7195 O.3     1  <0>        -0.3758
     28 O2         51.5467   21.8241   42.0050 O.2     1  <0>        -0.2700
     29 O3         57.0516   20.6669   35.5857 O.2     1  <0>        -0.2752
     30 F1         53.1001   27.9029   38.8110 F       1  <0>        -0.1673
     31 F2         53.9626   28.6031   40.6223 F       1  <0>        -0.1673
     32 F3         52.4598   29.8104   39.5875 F       1  <0>        -0.1673
     33 H1         51.2530   29.8079   41.7729 H       1  <0>         0.0263
     34 H2         50.5157   28.3032   42.4197 H       1  <0>         0.0263
     35 H3         52.2825   28.5815   42.5869 H       1  <0>         0.0263
     36 H4         53.5515   24.2803   42.6416 H       1  <0>         0.0625
     37 H5         50.7711   23.6766   39.4256 H       1  <0>         0.0625
     38 H6         53.2048   26.7502   42.4946 H       1  <0>         0.0621
     39 H7         50.5426   26.1120   39.1432 H       1  <0>         0.0621
     40 H8         50.4682   20.0051   40.3759 H       1  <0>         0.0284
     41 H9         50.9409   18.7075   40.8205 H       1  <0>         0.0284
     42 H10        52.6666   18.5285   38.4516 H       1  <0>         0.0284
     43 H11        52.1964   19.8198   38.0093 H       1  <0>         0.0284
     44 H12        55.1993   20.4342   38.9870 H       1  <0>         0.0335
     45 H13        55.6043   21.0345   40.6105 H       1  <0>         0.0335
     46 H14        52.7509   23.4196   38.3400 H       1  <0>         0.0335
     47 H15        53.2747   21.8829   37.5739 H       1  <0>         0.0335
     48 H16        60.0460   21.9350   38.1287 H       1  <0>         0.0277
     49 H17        59.3819   23.1014   38.6536 H       1  <0>         0.0277
     50 H18        59.4581   24.3545   35.9472 H       1  <0>         0.0277
     51 H19        60.1160   23.1990   35.4271 H       1  <0>         0.0277
     52 H20        56.4388   23.2042   39.5626 H       1  <0>         0.0815
     53 H21        57.3622   21.7849   38.9994 H       1  <0>         0.0815
     54 H22        54.4840   23.7062   36.5386 H       1  <0>         0.0815
     55 H23        54.9782   24.3461   38.1428 H       1  <0>         0.0815
     56 H24        57.2171   24.2015   37.3341 H       1  <0>         0.0825
     57 H25        56.5981   23.4907   35.7985 H       1  <0>         0.0825
     58 H26        53.7200   19.8943   40.9771 H       1  <0>         0.0501
     59 H27        54.3663   22.9765   40.2847 H       1  <0>         0.0504
     60 H28        59.1732   19.4764   35.4825 H       1  <0>         0.1449
     61 H29        60.0836   20.7625   36.2014 H       1  <0>         0.1449
     62 H30        55.7380   21.6628   37.1356 H       1  <0>         0.2034
     63 H31        50.6796   27.8338   38.8890 H       1  <0>         0.2110
@<TRIPOS>BOND
     1     1    22    1
     2     2     4   ar
     3     2    15   ar
     4     3     5   ar
     5     3    15   ar
     6     4    16   ar
     7     5    16   ar
     8     6     7    1
     9     6    17    1
    10     7    17    1
    11     8    12    1
    12     8    18    1
    13     9    13    1
    14     9    18    1
    15    10    11    1
    16    10    21    1
    17    11    21    1
    18    12    25    1
    19    13    25    1
    20    14    21    1
    21    14    25    1
    22    15    19    1
    23    16    22    1
    24    17    26    1
    25    18    26    1
    26    19    26   am
    27    19    28    2
    28    20    21    1
    29    20    24   am
    30    20    29    2
    31    22    23    1
    32    22    27    1
    33    23    30    1
    34    23    31    1
    35    23    32    1
    36     1    33    1
    37     1    34    1
    38     1    35    1
    39     2    36    1
    40     3    37    1
    41     4    38    1
    42     5    39    1
    43     6    40    1
    44     6    41    1
    45     7    42    1
    46     7    43    1
    47     8    44    1
    48     8    45    1
    49     9    46    1
    50     9    47    1
    51    10    48    1
    52    10    49    1
    53    11    50    1
    54    11    51    1
    55    12    52    1
    56    12    53    1
    57    13    54    1
    58    13    55    1
    59    14    56    1
    60    14    57    1
    61    17    58    1
    62    18    59    1
    63    24    60    1
    64    24    61    1
    65    25    62    1
    66    27    63    1
@<TRIPOS>SUBSTRUCTURE
     1 <0>         1 TEMP              0 ****  ****    0 ROOT

