
##########                                Name:          A49_2_3FRJ
##########                    Molecular_Weight:             454.513
##########                DOCK_Rotatable_Bonds:                  11
##########                       Formal_Charge:              0.9997
##########                     HBond_Acceptors:                   9
##########                        HBond_Donors:                   4
##########                         Heavy_Atoms:                  32
##########                            HA_RMSDs:               0.265
##########                            HA_RMSDh:               0.265
##########                            HA_RMSDm:               0.265
##########                          Grid_Score:         -115.850960
##########                     Grid_vdw_energy:          -67.594269
##########                      Grid_es_energy:          -48.256691
##########           Internal_energy_repulsive:           25.065956

@<TRIPOS>MOLECULE
A49_2_3FRJ
 63 66 1 0 0
SMALL
USER_CHARGES


@<TRIPOS>ATOM
      1 C1         51.6473   28.9569   41.9003 C.3     1  <0>        -0.0233
      2 C2         52.9268   24.9094   42.0071 C.ar    1  <0>        -0.0493
      3 C3         51.3187   24.4419   40.2418 C.ar    1  <0>        -0.0493
      4 C4         52.7071   26.2848   41.8635 C.ar    1  <0>        -0.0549
      5 C5         51.1243   25.7870   40.0449 C.ar    1  <0>        -0.0549
      6 C6         51.5541   19.6044   40.6381 C.3     1  <0>        -0.0326
      7 C7         52.3735   19.4792   39.3814 C.3     1  <0>        -0.0326
      8 C8         55.3730   21.5864   39.8039 C.3     1  <0>         0.0063
      9 C9         53.5300   22.6426   38.2916 C.3     1  <0>         0.0063
     10 C10        59.3180   22.8522   37.4951 C.3     1  <0>        -0.0330
     11 C11        59.2285   23.2878   36.0254 C.3     1  <0>        -0.0330
     12 C12        56.3478   22.4930   39.0609 C.3     1  <0>        -0.0301
     13 C13        54.6247   23.3442   37.5368 C.3     1  <0>        -0.0301
     14 C14        56.8497   23.2322   36.7532 C.3     1  <0>        -0.0177
     15 C15        52.2432   24.0029   41.2117 C.ar    1  <0>         0.0369
     16 C16        51.8068   26.6982   40.8524 C.ar    1  <0>        -0.0077
     17 C17        52.9641   20.1913   40.6077 C.3     1  <0>         0.0267
     18 C18        54.0276   22.3215   39.7351 C.3     1  <0>         0.0362
     19 C19        52.3382   22.5147   41.3706 C.2     1  <0>         0.2471
     20 C20        58.0616   21.0202   36.1612 C.2     1  <0>         0.2218
     21 C21        58.1296   22.4478   36.6627 C.3     1  <0>         0.0864
     22 C22        51.5396   28.1589   40.6068 C.3     1  <0>         0.1828
     23 C23        52.5283   28.6552   39.5681 C.3     1  <0>         0.4221
     24 N1         59.1767   20.4151   35.9039 N.am    1  <0>        -0.3287
     25 N2         55.8695   22.5478   37.6180 N.4     1  <0>         0.2361
     26 N3         52.8968   21.6780   40.3657 N.am    1  <0>        -0.2911
     27 O1         50.2309   28.3301   40.0244 O.3     1  <0>        -0.3758
     28 O2         51.7123   22.0157   42.3053 O.2     1  <0>        -0.2700
     29 O3         56.9874   20.4254   36.0900 O.2     1  <0>        -0.2752
     30 F1         52.6407   27.7600   38.6131 F       1  <0>        -0.1673
     31 F2         53.7465   28.8754   40.0442 F       1  <0>        -0.1673
     32 F3         51.9528   29.7365   39.1344 F       1  <0>        -0.1673
     33 H1         51.4481   30.0189   41.6942 H       1  <0>         0.0263
     34 H2         50.9113   28.5800   42.6257 H       1  <0>         0.0263
     35 H3         52.6603   28.8477   42.3150 H       1  <0>         0.0263
     36 H4         53.6333   24.5526   42.7420 H       1  <0>         0.0625
     37 H5         50.7655   23.7229   39.6557 H       1  <0>         0.0625
     38 H6         53.2050   27.0020   42.4993 H       1  <0>         0.0621
     39 H7         50.4517   26.1354   39.2751 H       1  <0>         0.0621
     40 H8         50.5827   20.0910   40.8104 H       1  <0>         0.0284
     41 H9         51.1183   18.8292   41.2853 H       1  <0>         0.0284
     42 H10        52.7167   18.5889   38.8340 H       1  <0>         0.0284
     43 H11        52.1838   19.8447   38.3614 H       1  <0>         0.0284
     44 H12        55.3088   20.5979   39.3258 H       1  <0>         0.0335
     45 H13        55.6889   21.4358   40.8468 H       1  <0>         0.0335
     46 H14        52.6435   23.2917   38.3434 H       1  <0>         0.0335
     47 H15        53.2676   21.7072   37.7757 H       1  <0>         0.0335
     48 H16        60.0687   22.2439   38.0209 H       1  <0>         0.0277
     49 H17        59.3806   23.4460   38.4190 H       1  <0>         0.0277
     50 H18        59.2066   24.2848   35.5613 H       1  <0>         0.0277
     51 H19        59.8882   23.0939   35.1668 H       1  <0>         0.0277
     52 H20        56.3518   23.4997   39.5040 H       1  <0>         0.0815
     53 H21        57.3685   22.0861   39.1132 H       1  <0>         0.0815
     54 H22        54.3295   23.4565   36.4831 H       1  <0>         0.0815
     55 H23        54.7955   24.3374   37.9778 H       1  <0>         0.0815
     56 H24        57.0676   24.2241   37.1756 H       1  <0>         0.0825
     57 H25        56.4236   23.3383   35.7447 H       1  <0>         0.0825
     58 H26        53.8643   20.0992   41.2330 H       1  <0>         0.0501
     59 H27        54.3100   23.2257   40.2943 H       1  <0>         0.0504
     60 H28        59.1731   19.4499   35.6427 H       1  <0>         0.1449
     61 H29        60.0417   20.9129   35.9664 H       1  <0>         0.1449
     62 H30        55.7349   21.6036   37.3173 H       1  <0>         0.2034
     63 H31        50.2981   28.2946   39.0774 H       1  <0>         0.2110
@<TRIPOS>BOND
     1     1    22    1
     2     2     4   ar
     3     2    15   ar
     4     3     5   ar
     5     3    15   ar
     6     4    16   ar
     7     5    16   ar
     8     6     7    1
     9     6    17    1
    10     7    17    1
    11     8    12    1
    12     8    18    1
    13     9    13    1
    14     9    18    1
    15    10    11    1
    16    10    21    1
    17    11    21    1
    18    12    25    1
    19    13    25    1
    20    14    21    1
    21    14    25    1
    22    15    19    1
    23    16    22    1
    24    17    26    1
    25    18    26    1
    26    19    26   am
    27    19    28    2
    28    20    21    1
    29    20    24   am
    30    20    29    2
    31    22    23    1
    32    22    27    1
    33    23    30    1
    34    23    31    1
    35    23    32    1
    36     1    33    1
    37     1    34    1
    38     1    35    1
    39     2    36    1
    40     3    37    1
    41     4    38    1
    42     5    39    1
    43     6    40    1
    44     6    41    1
    45     7    42    1
    46     7    43    1
    47     8    44    1
    48     8    45    1
    49     9    46    1
    50     9    47    1
    51    10    48    1
    52    10    49    1
    53    11    50    1
    54    11    51    1
    55    12    52    1
    56    12    53    1
    57    13    54    1
    58    13    55    1
    59    14    56    1
    60    14    57    1
    61    17    58    1
    62    18    59    1
    63    24    60    1
    64    24    61    1
    65    25    62    1
    66    27    63    1
@<TRIPOS>SUBSTRUCTURE
     1 <0>         1 TEMP              0 ****  ****    0 ROOT

