
##########                                Name:        MRK_501_3F9M
##########                    Molecular_Weight:             349.413
##########                DOCK_Rotatable_Bonds:                   5
##########                       Formal_Charge:        -0.000200003
##########                     HBond_Acceptors:                   9
##########                        HBond_Donors:                   3
##########                         Heavy_Atoms:                  23
##########                            HA_RMSDs:               0.366
##########                            HA_RMSDh:               0.366
##########                            HA_RMSDm:               0.366
##########                          Grid_Score:          -58.077202
##########                     Grid_vdw_energy:          -56.963177
##########                      Grid_es_energy:           -1.114027
##########           Internal_energy_repulsive:           20.428362

@<TRIPOS>MOLECULE
MRK_501_3F9M
 35 37 1 0 0
SMALL
USER_CHARGES


@<TRIPOS>ATOM
      1 C1        -13.1379    6.4215   19.6191 C.3     1  <0>         0.0071
      2 C2        -11.0553    8.1993   22.0480 C.2     1  <0>         0.0442
      3 C3         -8.1005   -2.8774   23.0743 C.2     1  <0>         0.0368
      4 C4        -11.9638    8.1818   21.0019 C.2     1  <0>         0.0164
      5 C5         -7.6421   -3.4581   21.9033 C.2     1  <0>        -0.0030
      6 C6         -9.7629    2.5844   20.7171 C.ar    1  <0>        -0.0312
      7 C7         -8.5409    4.1370   18.7797 C.ar    1  <0>        -0.0039
      8 C8         -8.7399    2.0528   19.9371 C.ar    1  <0>         0.0589
      9 C9         -8.1252    2.8274   18.9534 C.ar    1  <0>         0.0396
     10 C10        -9.5673    4.6652   19.5545 C.ar    1  <0>         0.1389
     11 C11       -10.1782    3.8898   20.5349 C.ar    1  <0>         0.0513
     12 C12        -8.1239   -1.1020   21.7568 C.2     1  <0>         0.1646
     13 C13       -11.4855    6.1968   21.5215 C.2     1  <0>         0.1649
     14 C14        -8.3437    0.6430   20.1903 C.2     1  <0>         0.2515
     15 N1         -7.1292    2.3423   18.1661 N.pl3   1  <0>        -0.3573
     16 N2         -8.3606   -1.5447   22.9777 N.2     1  <0>        -0.2330
     17 N3        -10.7479    6.9188   22.3755 N.2     1  <0>        -0.2322
     18 N4         -8.3108    0.2075   21.4462 N.am    1  <0>        -0.2606
     19 N5        -12.2273    6.9093   20.6803 N.pl3   1  <0>        -0.2877
     20 O1         -8.1094   -0.0835   19.2516 O.2     1  <0>        -0.2697
     21 F1         -9.9437    5.9461   19.3329 F       1  <0>        -0.2043
     22 S1         -7.5433   -2.2877   20.6328 S.3     1  <0>        -0.0605
     23 S2        -11.4763    4.4637   21.4869 S.3     1  <0>        -0.0512
     24 H1        -13.1344    5.3216   19.6092 H       1  <0>         0.0432
     25 H2        -14.1579    6.7830   19.8166 H       1  <0>         0.0432
     26 H3        -12.7980    6.7979   18.6430 H       1  <0>         0.0432
     27 H4        -10.6583    9.0840   22.5233 H       1  <0>         0.0843
     28 H5         -8.2401   -3.4357   23.9881 H       1  <0>         0.0835
     29 H6        -12.3895    9.0520   20.5244 H       1  <0>         0.0799
     30 H7         -7.3815   -4.5008   21.7975 H       1  <0>         0.0709
     31 H8        -10.2357    1.9720   21.4706 H       1  <0>         0.0638
     32 H9         -8.0625    4.7547   18.0341 H       1  <0>         0.0665
     33 H10        -6.9439    1.3906   18.4105 H       1  <0>         0.1423
     34 H11        -7.4085    2.3917   17.2072 H       1  <0>         0.1423
     35 H12        -8.4278    0.8672   22.1886 H       1  <0>         0.1571
@<TRIPOS>BOND
     1     1    19    1
     2     2     4    2
     3     2    17    1
     4     3     5    2
     5     3    16    1
     6     4    19    1
     7     5    22    1
     8     6     8   ar
     9     6    11   ar
    10     7     9   ar
    11     7    10   ar
    12     8     9   ar
    13     8    14    1
    14     9    15    1
    15    10    11   ar
    16    10    21    1
    17    11    23    1
    18    12    16    2
    19    12    18    1
    20    12    22    1
    21    13    17    2
    22    13    19    1
    23    13    23    1
    24    14    18   am
    25    14    20    2
    26     1    24    1
    27     1    25    1
    28     1    26    1
    29     2    27    1
    30     3    28    1
    31     4    29    1
    32     5    30    1
    33     6    31    1
    34     7    32    1
    35    15    33    1
    36    15    34    1
    37    18    35    1
@<TRIPOS>SUBSTRUCTURE
     1 <0>         1 TEMP              0 ****  ****    0 ROOT

