
##########                                Name:        MRK_501_3F9M
##########                    Molecular_Weight:             349.413
##########                DOCK_Rotatable_Bonds:                   5
##########                       Formal_Charge:        -0.000200003
##########                     HBond_Acceptors:                   9
##########                        HBond_Donors:                   3
##########                         Heavy_Atoms:                  23
##########                            HA_RMSDs:               0.551
##########                            HA_RMSDh:               0.551
##########                            HA_RMSDm:               0.551
##########                          Grid_Score:          -54.839710
##########                     Grid_vdw_energy:          -53.937355
##########                      Grid_es_energy:           -0.902355
##########           Internal_energy_repulsive:           18.171642

@<TRIPOS>MOLECULE
MRK_501_3F9M
 35 37 1 0 0
SMALL
USER_CHARGES


@<TRIPOS>ATOM
      1 C1        -13.4103    6.8758   19.8464 C.3     1  <0>         0.0071
      2 C2        -10.8949    8.3493   22.0597 C.2     1  <0>         0.0442
      3 C3         -7.6167   -2.4977   22.9053 C.2     1  <0>         0.0368
      4 C4        -11.9658    8.4585   21.1872 C.2     1  <0>         0.0164
      5 C5         -7.6675   -3.1618   21.6908 C.2     1  <0>        -0.0030
      6 C6         -9.7346    2.8688   20.4835 C.ar    1  <0>        -0.0312
      7 C7         -8.4347    4.4782   18.6456 C.ar    1  <0>        -0.0039
      8 C8         -8.6599    2.3697   19.7531 C.ar    1  <0>         0.0589
      9 C9         -8.0054    3.1730   18.8195 C.ar    1  <0>         0.0396
     10 C10        -9.5125    4.9740   19.3705 C.ar    1  <0>         0.1389
     11 C11       -10.1630    4.1699   20.3011 C.ar    1  <0>         0.0513
     12 C12        -8.0053   -0.7794   21.5692 C.2     1  <0>         0.1646
     13 C13       -11.4708    6.4224   21.4062 C.2     1  <0>         0.1649
     14 C14        -8.2527    0.9625   20.0034 C.2     1  <0>         0.2515
     15 N1         -6.9581    2.7201   18.0812 N.pl3   1  <0>        -0.3573
     16 N2         -7.8014   -1.1517   22.8192 N.2     1  <0>        -0.2330
     17 N3        -10.5780    7.0367   22.1937 N.2     1  <0>        -0.2322
     18 N4         -8.2033    0.5286   21.2594 N.am    1  <0>        -0.2606
     19 N5        -12.3198    7.2324   20.7829 N.pl3   1  <0>        -0.2877
     20 O1         -8.0246    0.2364   19.0629 O.2     1  <0>        -0.2697
     21 F1         -9.8994    6.2520   19.1507 F       1  <0>        -0.2043
     22 S1         -7.9672   -2.0549   20.3953 S.3     1  <0>        -0.0605
     23 S2        -11.5228    4.7034   21.1884 S.3     1  <0>        -0.0512
     24 H1        -13.4436    5.7836   19.7204 H       1  <0>         0.0432
     25 H2        -14.3708    7.2274   20.2512 H       1  <0>         0.0432
     26 H3        -13.2267    7.3518   18.8719 H       1  <0>         0.0432
     27 H4        -10.3959    9.1714   22.5512 H       1  <0>         0.0843
     28 H5         -7.4449   -3.0055   23.8428 H       1  <0>         0.0835
     29 H6        -12.4373    9.3813   20.8831 H       1  <0>         0.0799
     30 H7         -7.5375   -4.2270   21.5690 H       1  <0>         0.0709
     31 H8        -10.2376    2.2343   21.1982 H       1  <0>         0.0638
     32 H9         -7.9267    5.1179   17.9392 H       1  <0>         0.0665
     33 H10        -6.7693    1.7673   18.3189 H       1  <0>         0.1423
     34 H11        -7.1840    2.7824   17.1091 H       1  <0>         0.1423
     35 H12        -8.3160    1.1884   22.0023 H       1  <0>         0.1571
@<TRIPOS>BOND
     1     1    19    1
     2     2     4    2
     3     2    17    1
     4     3     5    2
     5     3    16    1
     6     4    19    1
     7     5    22    1
     8     6     8   ar
     9     6    11   ar
    10     7     9   ar
    11     7    10   ar
    12     8     9   ar
    13     8    14    1
    14     9    15    1
    15    10    11   ar
    16    10    21    1
    17    11    23    1
    18    12    16    2
    19    12    18    1
    20    12    22    1
    21    13    17    2
    22    13    19    1
    23    13    23    1
    24    14    18   am
    25    14    20    2
    26     1    24    1
    27     1    25    1
    28     1    26    1
    29     2    27    1
    30     3    28    1
    31     4    29    1
    32     5    30    1
    33     6    31    1
    34     7    32    1
    35    15    33    1
    36    15    34    1
    37    18    35    1
@<TRIPOS>SUBSTRUCTURE
     1 <0>         1 TEMP              0 ****  ****    0 ROOT

