
##########                                Name:        MRK_501_3F9M
##########                    Molecular_Weight:             349.413
##########                DOCK_Rotatable_Bonds:                   5
##########                       Formal_Charge:        -0.000200003
##########                     HBond_Acceptors:                   9
##########                        HBond_Donors:                   3
##########                         Heavy_Atoms:                  23
##########                            HA_RMSDs:               0.381
##########                            HA_RMSDh:               0.381
##########                            HA_RMSDm:               0.381
##########                          Grid_Score:          -52.505157
##########                     Grid_vdw_energy:          -51.382481
##########                      Grid_es_energy:           -1.122678
##########           Internal_energy_repulsive:           18.328964

@<TRIPOS>MOLECULE
MRK_501_3F9M
 35 37 1 0 0
SMALL
USER_CHARGES


@<TRIPOS>ATOM
      1 C1        -13.5349    6.6472   19.9846 C.3     1  <0>         0.0071
      2 C2        -10.8744    8.1803   21.9766 C.2     1  <0>         0.0442
      3 C3         -7.6694   -2.5517   23.2508 C.2     1  <0>         0.0368
      4 C4        -11.9966    8.2663   21.1684 C.2     1  <0>         0.0164
      5 C5         -7.6640   -3.2750   22.0696 C.2     1  <0>        -0.0030
      6 C6         -9.8067    2.6588   20.6072 C.ar    1  <0>        -0.0312
      7 C7         -8.7157    4.1188   18.5248 C.ar    1  <0>        -0.0039
      8 C8         -8.7820    2.1185   19.8354 C.ar    1  <0>         0.0589
      9 C9         -8.2332    2.8458   18.7794 C.ar    1  <0>         0.0396
     10 C10        -9.7438    4.6552   19.2918 C.ar    1  <0>         0.1389
     11 C11       -10.2889    3.9270   20.3445 C.ar    1  <0>         0.0513
     12 C12        -8.1064   -0.9193   21.8250 C.2     1  <0>         0.1646
     13 C13       -11.5058    6.2352   21.4382 C.2     1  <0>         0.1649
     14 C14        -8.3119    0.7507   20.1769 C.2     1  <0>         0.2515
     15 N1         -7.2379    2.3500   17.9979 N.pl3   1  <0>        -0.3573
     16 N2         -7.9129   -1.2214   23.0954 N.2     1  <0>        -0.2330
     17 N3        -10.5606    6.8707   22.1434 N.2     1  <0>        -0.2322
     18 N4         -8.3566    0.3617   21.4477 N.am    1  <0>        -0.2606
     19 N5        -12.3853    7.0290   20.8366 N.pl3   1  <0>        -0.2877
     20 O1         -7.9480    0.0116   19.2909 O.2     1  <0>        -0.2697
     21 F1        -10.1871    5.8978   18.9904 F       1  <0>        -0.2043
     22 S1         -7.9855   -2.2466   20.7158 S.3     1  <0>        -0.0605
     23 S2        -11.5854    4.5097   21.2934 S.3     1  <0>        -0.0512
     24 H1        -13.5850    5.5513   19.9050 H       1  <0>         0.0432
     25 H2        -14.4654    7.0249   20.4336 H       1  <0>         0.0432
     26 H3        -13.4086    7.0821   18.9822 H       1  <0>         0.0432
     27 H4        -10.3389    9.0159   22.4026 H       1  <0>         0.0843
     28 H5         -7.4950   -3.0055   24.2151 H       1  <0>         0.0835
     29 H6        -12.4786    9.1813   20.8573 H       1  <0>         0.0799
     30 H7         -7.4834   -4.3377   22.0026 H       1  <0>         0.0709
     31 H8        -10.2281    2.0826   21.4176 H       1  <0>         0.0638
     32 H9         -8.2887    4.7011   17.7218 H       1  <0>         0.0665
     33 H10        -7.0005    1.4283   18.3043 H       1  <0>         0.1423
     34 H11        -7.5464    2.3159   17.0473 H       1  <0>         0.1423
     35 H12        -8.5824    1.0361   22.1508 H       1  <0>         0.1571
@<TRIPOS>BOND
     1     1    19    1
     2     2     4    2
     3     2    17    1
     4     3     5    2
     5     3    16    1
     6     4    19    1
     7     5    22    1
     8     6     8   ar
     9     6    11   ar
    10     7     9   ar
    11     7    10   ar
    12     8     9   ar
    13     8    14    1
    14     9    15    1
    15    10    11   ar
    16    10    21    1
    17    11    23    1
    18    12    16    2
    19    12    18    1
    20    12    22    1
    21    13    17    2
    22    13    19    1
    23    13    23    1
    24    14    18   am
    25    14    20    2
    26     1    24    1
    27     1    25    1
    28     1    26    1
    29     2    27    1
    30     3    28    1
    31     4    29    1
    32     5    30    1
    33     6    31    1
    34     7    32    1
    35    15    33    1
    36    15    34    1
    37    18    35    1
@<TRIPOS>SUBSTRUCTURE
     1 <0>         1 TEMP              0 ****  ****    0 ROOT

