
##########                                Name:        MRK_501_3F9M
##########                    Molecular_Weight:             349.413
##########                DOCK_Rotatable_Bonds:                   5
##########                       Formal_Charge:        -0.000200003
##########                     HBond_Acceptors:                   9
##########                        HBond_Donors:                   3
##########                         Heavy_Atoms:                  23
##########                            HA_RMSDs:               0.317
##########                            HA_RMSDh:               0.317
##########                            HA_RMSDm:               0.317
##########                          Grid_Score:          -53.762131
##########                     Grid_vdw_energy:          -52.537128
##########                      Grid_es_energy:           -1.225002
##########           Internal_energy_repulsive:           20.157938

@<TRIPOS>MOLECULE
MRK_501_3F9M
 35 37 1 0 0
SMALL
USER_CHARGES


@<TRIPOS>ATOM
      1 C1        -13.2649    6.8274   19.7751 C.3     1  <0>         0.0071
      2 C2        -10.9907    7.8792   22.4433 C.2     1  <0>         0.0442
      3 C3         -7.9999   -2.7454   22.8739 C.2     1  <0>         0.0368
      4 C4        -11.9377    8.1530   21.4695 C.2     1  <0>         0.0164
      5 C5         -7.5428   -3.3018   21.6907 C.2     1  <0>        -0.0030
      6 C6         -9.7287    2.6721   20.4503 C.ar    1  <0>        -0.0312
      7 C7         -8.5232    4.2787   18.5469 C.ar    1  <0>        -0.0039
      8 C8         -8.6122    2.2161   19.7555 C.ar    1  <0>         0.0589
      9 C9         -8.0046    3.0175   18.7892 C.ar    1  <0>         0.0396
     10 C10        -9.6425    4.7310   19.2365 C.ar    1  <0>         0.1389
     11 C11       -10.2460    3.9289   20.1998 C.ar    1  <0>         0.0513
     12 C12        -8.1679   -0.9789   21.5549 C.2     1  <0>         0.1646
     13 C13       -11.5575    6.0808   21.4861 C.2     1  <0>         0.1649
     14 C14        -8.1093    0.8555   20.0789 C.2     1  <0>         0.2515
     15 N1         -6.9185    2.6052   18.0838 N.pl3   1  <0>        -0.3573
     16 N2         -8.3415   -1.4308   22.7830 N.2     1  <0>        -0.2330
     17 N3        -10.7468    6.5444   22.4465 N.2     1  <0>        -0.2322
     18 N4         -8.4414    0.3161   21.2481 N.am    1  <0>        -0.2606
     19 N5        -12.2876    7.0065   20.8734 N.pl3   1  <0>        -0.2877
     20 O1         -7.4551    0.2556   19.2568 O.2     1  <0>        -0.2697
     21 F1        -10.1163    5.9658   18.9500 F       1  <0>        -0.2043
     22 S1         -7.5515   -2.1318   20.4160 S.3     1  <0>        -0.0605
     23 S2        -11.6513    4.4064   21.0471 S.3     1  <0>        -0.0512
     24 H1        -13.3264    5.7621   19.5084 H       1  <0>         0.0432
     25 H2        -14.2536    7.1807   20.1031 H       1  <0>         0.0432
     26 H3        -12.9408    7.4067   18.8980 H       1  <0>         0.0432
     27 H4        -10.5246    8.6066   23.0914 H       1  <0>         0.0843
     28 H5         -8.0788   -3.3080   23.7924 H       1  <0>         0.0835
     29 H6        -12.3294    9.1307   21.2307 H       1  <0>         0.0799
     30 H7         -7.2240   -4.3276   21.5788 H       1  <0>         0.0709
     31 H8        -10.1944    2.0389   21.1911 H       1  <0>         0.0638
     32 H9         -8.0530    4.9178   17.8143 H       1  <0>         0.0665
     33 H10        -6.6657    1.6811   18.3702 H       1  <0>         0.1423
     34 H11        -7.1361    2.6037   17.1078 H       1  <0>         0.1423
     35 H12        -8.9091    0.8838   21.9256 H       1  <0>         0.1571
@<TRIPOS>BOND
     1     1    19    1
     2     2     4    2
     3     2    17    1
     4     3     5    2
     5     3    16    1
     6     4    19    1
     7     5    22    1
     8     6     8   ar
     9     6    11   ar
    10     7     9   ar
    11     7    10   ar
    12     8     9   ar
    13     8    14    1
    14     9    15    1
    15    10    11   ar
    16    10    21    1
    17    11    23    1
    18    12    16    2
    19    12    18    1
    20    12    22    1
    21    13    17    2
    22    13    19    1
    23    13    23    1
    24    14    18   am
    25    14    20    2
    26     1    24    1
    27     1    25    1
    28     1    26    1
    29     2    27    1
    30     3    28    1
    31     4    29    1
    32     5    30    1
    33     6    31    1
    34     7    32    1
    35    15    33    1
    36    15    34    1
    37    18    35    1
@<TRIPOS>SUBSTRUCTURE
     1 <0>         1 TEMP              0 ****  ****    0 ROOT

