
##########                                Name:        MRK_501_3F9M
##########                    Molecular_Weight:             349.413
##########                DOCK_Rotatable_Bonds:                   5
##########                       Formal_Charge:        -0.000200003
##########                     HBond_Acceptors:                   9
##########                        HBond_Donors:                   3
##########                         Heavy_Atoms:                  23
##########                            HA_RMSDs:               0.427
##########                            HA_RMSDh:               0.427
##########                            HA_RMSDm:               0.427
##########                          Grid_Score:          -54.765457
##########                     Grid_vdw_energy:          -53.617069
##########                      Grid_es_energy:           -1.148389
##########           Internal_energy_repulsive:           21.231701

@<TRIPOS>MOLECULE
MRK_501_3F9M
 35 37 1 0 0
SMALL
USER_CHARGES


@<TRIPOS>ATOM
      1 C1        -13.1897    6.8653   19.5655 C.3     1  <0>         0.0071
      2 C2        -11.0146    8.1829   22.1980 C.2     1  <0>         0.0442
      3 C3         -7.9573   -2.5846   22.8703 C.2     1  <0>         0.0368
      4 C4        -11.9361    8.3550   21.1775 C.2     1  <0>         0.0164
      5 C5         -7.5274   -3.1522   21.6822 C.2     1  <0>        -0.0030
      6 C6         -9.6885    2.8333   20.4519 C.ar    1  <0>        -0.0312
      7 C7         -8.5206    4.4111   18.5014 C.ar    1  <0>        -0.0039
      8 C8         -8.5963    2.3600   19.7303 C.ar    1  <0>         0.0589
      9 C9         -8.0080    3.1469   18.7404 C.ar    1  <0>         0.0396
     10 C10        -9.6158    4.8806   19.2178 C.ar    1  <0>         0.1389
     11 C11       -10.2001    4.0930   20.2046 C.ar    1  <0>         0.0513
     12 C12        -8.1367   -0.8253   21.5432 C.2     1  <0>         0.1646
     13 C13       -11.5230    6.2992   21.3826 C.2     1  <0>         0.1649
     14 C14        -8.0981    0.9972   20.0518 C.2     1  <0>         0.2515
     15 N1         -6.9461    2.7175   18.0089 N.pl3   1  <0>        -0.3573
     16 N2         -8.2902   -1.2679   22.7773 N.2     1  <0>        -0.2330
     17 N3        -10.7494    6.8580   22.3226 N.2     1  <0>        -0.2322
     18 N4         -8.4058    0.4699   21.2331 N.am    1  <0>        -0.2606
     19 N5        -12.2491    7.1555   20.6720 N.pl3   1  <0>        -0.2877
     20 O1         -7.4701    0.3849   19.2184 O.2     1  <0>        -0.2697
     21 F1        -10.0851    6.1176   18.9335 F       1  <0>        -0.2043
     22 S1         -7.5514   -1.9904   20.4003 S.3     1  <0>        -0.0605
     23 S2        -11.5765    4.5920   21.0863 S.3     1  <0>        -0.0512
     24 H1        -13.2259    5.7801   19.3894 H       1  <0>         0.0432
     25 H2        -14.1936    7.2267   19.8334 H       1  <0>         0.0432
     26 H3        -12.8486    7.3737   18.6517 H       1  <0>         0.0432
     27 H4        -10.5802    8.9715   22.7945 H       1  <0>         0.0843
     28 H5         -8.0230   -3.1405   23.7939 H       1  <0>         0.0835
     29 H6        -12.3361    9.3013   20.8446 H       1  <0>         0.0799
     30 H7         -7.2189   -4.1812   21.5711 H       1  <0>         0.0709
     31 H8        -10.1396    2.2113   21.2108 H       1  <0>         0.0638
     32 H9         -8.0647    5.0390   17.7504 H       1  <0>         0.0665
     33 H10        -6.6945    1.7933   18.2963 H       1  <0>         0.1423
     34 H11        -7.1907    2.7097   17.0393 H       1  <0>         0.1423
     35 H12        -8.8512    1.0471   21.9176 H       1  <0>         0.1571
@<TRIPOS>BOND
     1     1    19    1
     2     2     4    2
     3     2    17    1
     4     3     5    2
     5     3    16    1
     6     4    19    1
     7     5    22    1
     8     6     8   ar
     9     6    11   ar
    10     7     9   ar
    11     7    10   ar
    12     8     9   ar
    13     8    14    1
    14     9    15    1
    15    10    11   ar
    16    10    21    1
    17    11    23    1
    18    12    16    2
    19    12    18    1
    20    12    22    1
    21    13    17    2
    22    13    19    1
    23    13    23    1
    24    14    18   am
    25    14    20    2
    26     1    24    1
    27     1    25    1
    28     1    26    1
    29     2    27    1
    30     3    28    1
    31     4    29    1
    32     5    30    1
    33     6    31    1
    34     7    32    1
    35    15    33    1
    36    15    34    1
    37    18    35    1
@<TRIPOS>SUBSTRUCTURE
     1 <0>         1 TEMP              0 ****  ****    0 ROOT

