
##########                                Name:        MRK_501_3F9M
##########                    Molecular_Weight:             349.413
##########                DOCK_Rotatable_Bonds:                   5
##########                       Formal_Charge:        -0.000200003
##########                     HBond_Acceptors:                   9
##########                        HBond_Donors:                   3
##########                         Heavy_Atoms:                  23
##########                            HA_RMSDs:               0.386
##########                            HA_RMSDh:               0.386
##########                            HA_RMSDm:               0.386
##########                          Grid_Score:          -56.139935
##########                     Grid_vdw_energy:          -54.713913
##########                      Grid_es_energy:           -1.426023
##########           Internal_energy_repulsive:           17.435930

@<TRIPOS>MOLECULE
MRK_501_3F9M
 35 37 1 0 0
SMALL
USER_CHARGES


@<TRIPOS>ATOM
      1 C1        -13.0980    6.7277   19.5786 C.3     1  <0>         0.0071
      2 C2        -11.1656    7.8042   22.4948 C.2     1  <0>         0.0442
      3 C3         -7.6545   -2.6539   23.2377 C.2     1  <0>         0.0368
      4 C4        -11.9843    8.0692   21.4087 C.2     1  <0>         0.0164
      5 C5         -7.5049   -3.3194   22.0322 C.2     1  <0>        -0.0030
      6 C6         -9.7063    2.5909   20.5672 C.ar    1  <0>        -0.0312
      7 C7         -8.3782    4.2286   18.7751 C.ar    1  <0>        -0.0039
      8 C8         -8.5468    2.1455   19.9391 C.ar    1  <0>         0.0589
      9 C9         -7.8769    2.9627   19.0288 C.ar    1  <0>         0.0396
     10 C10        -9.5402    4.6704   19.3976 C.ar    1  <0>         0.1389
     11 C11       -10.2058    3.8525   20.3052 C.ar    1  <0>         0.0513
     12 C12        -8.0002   -0.9687   21.8487 C.2     1  <0>         0.1646
     13 C13       -11.6175    5.9963   21.4952 C.2     1  <0>         0.1649
     14 C14        -8.0665    0.7788   20.2710 C.2     1  <0>         0.2515
     15 N1         -6.7471    2.5612   18.3890 N.pl3   1  <0>        -0.3573
     16 N2         -7.9261   -1.3254   23.1175 N.2     1  <0>        -0.2330
     17 N3        -10.9294    6.4689   22.5430 N.2     1  <0>        -0.2322
     18 N4         -8.2543    0.3211   21.5053 N.am    1  <0>        -0.2606
     19 N5        -12.2627    6.9169   20.7869 N.pl3   1  <0>        -0.2877
     20 O1         -7.5635    0.1015   19.4038 O.2     1  <0>        -0.2697
     21 F1         -9.9939    5.9107   19.1022 F       1  <0>        -0.2043
     22 S1         -7.7225   -2.2373   20.6998 S.3     1  <0>        -0.0605
     23 S2        -11.6635    4.3173   21.0668 S.3     1  <0>        -0.0512
     24 H1        -13.1305    5.6595   19.3182 H       1  <0>         0.0432
     25 H2        -14.1182    7.0875   19.7782 H       1  <0>         0.0432
     26 H3        -12.6659    7.2959   18.7417 H       1  <0>         0.0432
     27 H4        -10.7799    8.5379   23.1872 H       1  <0>         0.0843
     28 H5         -7.5633   -3.1480   24.1936 H       1  <0>         0.0835
     29 H6        -12.3395    9.0452   21.1126 H       1  <0>         0.0799
     30 H7         -7.2824   -4.3719   21.9368 H       1  <0>         0.0709
     31 H8        -10.2197    1.9456   21.2646 H       1  <0>         0.0638
     32 H9         -7.8608    4.8797   18.0861 H       1  <0>         0.0665
     33 H10        -6.5137    1.6319   18.6752 H       1  <0>         0.1423
     34 H11        -6.9002    2.5769   17.4010 H       1  <0>         0.1423
     35 H12        -8.5948    0.9484   22.2057 H       1  <0>         0.1571
@<TRIPOS>BOND
     1     1    19    1
     2     2     4    2
     3     2    17    1
     4     3     5    2
     5     3    16    1
     6     4    19    1
     7     5    22    1
     8     6     8   ar
     9     6    11   ar
    10     7     9   ar
    11     7    10   ar
    12     8     9   ar
    13     8    14    1
    14     9    15    1
    15    10    11   ar
    16    10    21    1
    17    11    23    1
    18    12    16    2
    19    12    18    1
    20    12    22    1
    21    13    17    2
    22    13    19    1
    23    13    23    1
    24    14    18   am
    25    14    20    2
    26     1    24    1
    27     1    25    1
    28     1    26    1
    29     2    27    1
    30     3    28    1
    31     4    29    1
    32     5    30    1
    33     6    31    1
    34     7    32    1
    35    15    33    1
    36    15    34    1
    37    18    35    1
@<TRIPOS>SUBSTRUCTURE
     1 <0>         1 TEMP              0 ****  ****    0 ROOT

