
##########                                Name:        MRK_501_3F9M
##########                    Molecular_Weight:             349.413
##########                DOCK_Rotatable_Bonds:                   5
##########                       Formal_Charge:        -0.000200003
##########                     HBond_Acceptors:                   9
##########                        HBond_Donors:                   3
##########                         Heavy_Atoms:                  23
##########                            HA_RMSDs:               0.384
##########                            HA_RMSDh:               0.384
##########                            HA_RMSDm:               0.384
##########                          Grid_Score:          -56.881924
##########                     Grid_vdw_energy:          -55.794048
##########                      Grid_es_energy:           -1.087874
##########           Internal_energy_repulsive:           21.326025

@<TRIPOS>MOLECULE
MRK_501_3F9M
 35 37 1 0 0
SMALL
USER_CHARGES


@<TRIPOS>ATOM
      1 C1        -12.8144    6.9214   19.5374 C.3     1  <0>         0.0071
      2 C2        -11.1452    7.9316   22.6343 C.2     1  <0>         0.0442
      3 C3         -7.8022   -2.6016   23.1509 C.2     1  <0>         0.0368
      4 C4        -11.8178    8.2263   21.4592 C.2     1  <0>         0.0164
      5 C5         -7.5357   -3.2431   21.9526 C.2     1  <0>        -0.0030
      6 C6         -9.8693    2.6669   20.5739 C.ar    1  <0>        -0.0312
      7 C7         -8.6125    4.2722   18.7029 C.ar    1  <0>        -0.0039
      8 C8         -8.7713    2.1875   19.8655 C.ar    1  <0>         0.0589
      9 C9         -8.1382    2.9885   18.9153 C.ar    1  <0>         0.0396
     10 C10        -9.7135    4.7481   19.4059 C.ar    1  <0>         0.1389
     11 C11       -10.3426    3.9464   20.3531 C.ar    1  <0>         0.0513
     12 C12        -8.0459   -0.8958   21.7655 C.2     1  <0>         0.1646
     13 C13       -11.6108    6.1358   21.6194 C.2     1  <0>         0.1649
     14 C14        -8.3159    0.8032   20.1569 C.2     1  <0>         0.2515
     15 N1         -7.0690    2.5540   18.1974 N.pl3   1  <0>        -0.3573
     16 N2         -8.0807   -1.2747   23.0295 N.2     1  <0>        -0.2330
     17 N3        -11.0112    6.5846   22.7300 N.2     1  <0>        -0.2322
     18 N4         -8.2865    0.3966   21.4226 N.am    1  <0>        -0.2606
     19 N5        -12.1067    7.0814   20.8286 N.pl3   1  <0>        -0.2877
     20 O1         -8.0314    0.0683   19.2389 O.2     1  <0>        -0.2697
     21 F1        -10.1441    6.0049   19.1485 F       1  <0>        -0.2043
     22 S1         -7.6483   -2.1396   20.6247 S.3     1  <0>        -0.0605
     23 S2        -11.7281    4.4541   21.2154 S.3     1  <0>        -0.0512
     24 H1        -12.8936    5.8520   19.2922 H       1  <0>         0.0432
     25 H2        -13.8223    7.3551   19.6157 H       1  <0>         0.0432
     26 H3        -12.2531    7.4385   18.7453 H       1  <0>         0.0432
     27 H4        -10.7875    8.6532   23.3538 H       1  <0>         0.0843
     28 H5         -7.7900   -3.1119   24.1027 H       1  <0>         0.0835
     29 H6        -12.0678    9.2171   21.1096 H       1  <0>         0.0799
     30 H7         -7.2906   -4.2908   21.8596 H       1  <0>         0.0709
     31 H8        -10.3553    2.0341   21.3019 H       1  <0>         0.0638
     32 H9         -8.1218    4.9106   17.9831 H       1  <0>         0.0665
     33 H10        -6.8482    1.6154   18.4623 H       1  <0>         0.1423
     34 H11        -7.2889    2.5820   17.2223 H       1  <0>         0.1423
     35 H12        -8.4473    1.0660   22.1480 H       1  <0>         0.1571
@<TRIPOS>BOND
     1     1    19    1
     2     2     4    2
     3     2    17    1
     4     3     5    2
     5     3    16    1
     6     4    19    1
     7     5    22    1
     8     6     8   ar
     9     6    11   ar
    10     7     9   ar
    11     7    10   ar
    12     8     9   ar
    13     8    14    1
    14     9    15    1
    15    10    11   ar
    16    10    21    1
    17    11    23    1
    18    12    16    2
    19    12    18    1
    20    12    22    1
    21    13    17    2
    22    13    19    1
    23    13    23    1
    24    14    18   am
    25    14    20    2
    26     1    24    1
    27     1    25    1
    28     1    26    1
    29     2    27    1
    30     3    28    1
    31     4    29    1
    32     5    30    1
    33     6    31    1
    34     7    32    1
    35    15    33    1
    36    15    34    1
    37    18    35    1
@<TRIPOS>SUBSTRUCTURE
     1 <0>         1 TEMP              0 ****  ****    0 ROOT

