
##########                                Name:        MRK_501_3F9M
##########                    Molecular_Weight:             349.413
##########                DOCK_Rotatable_Bonds:                   5
##########                       Formal_Charge:        -0.000200003
##########                     HBond_Acceptors:                   9
##########                        HBond_Donors:                   3
##########                         Heavy_Atoms:                  23
##########                            HA_RMSDs:               0.293
##########                            HA_RMSDh:               0.293
##########                            HA_RMSDm:               0.293
##########                          Grid_Score:          -56.924881
##########                     Grid_vdw_energy:          -55.786514
##########                      Grid_es_energy:           -1.138368
##########           Internal_energy_repulsive:           20.479927

@<TRIPOS>MOLECULE
MRK_501_3F9M
 35 37 1 0 0
SMALL
USER_CHARGES


@<TRIPOS>ATOM
      1 C1        -13.3355    6.5679   19.9746 C.3     1  <0>         0.0071
      2 C2        -10.8031    8.1236   22.1108 C.2     1  <0>         0.0442
      3 C3         -8.0259   -2.8181   23.1877 C.2     1  <0>         0.0368
      4 C4        -11.8745    8.2003   21.2355 C.2     1  <0>         0.0164
      5 C5         -7.6101   -3.4255   22.0144 C.2     1  <0>        -0.0030
      6 C6         -9.7151    2.5786   20.7016 C.ar    1  <0>        -0.0312
      7 C7         -8.5475    4.0844   18.6949 C.ar    1  <0>        -0.0039
      8 C8         -8.6871    2.0416   19.9320 C.ar    1  <0>         0.0589
      9 C9         -8.0997    2.7922   18.9138 C.ar    1  <0>         0.0396
     10 C10        -9.5789    4.6178   19.4595 C.ar    1  <0>         0.1389
     11 C11       -10.1625    3.8662   20.4744 C.ar    1  <0>         0.0513
     12 C12        -8.1216   -1.0786   21.8262 C.2     1  <0>         0.1646
     13 C13       -11.3973    6.1727   21.5517 C.2     1  <0>         0.1649
     14 C14        -8.2557    0.6519   20.2342 C.2     1  <0>         0.2515
     15 N1         -7.0999    2.3008   18.1354 N.pl3   1  <0>        -0.3573
     16 N2         -8.3033   -1.4908   23.0670 N.2     1  <0>        -0.2330
     17 N3        -10.4976    6.8162   22.3074 N.2     1  <0>        -0.2322
     18 N4         -8.3345    0.2204   21.4895 N.am    1  <0>        -0.2606
     19 N5        -12.2402    6.9594   20.8914 N.pl3   1  <0>        -0.2877
     20 O1         -7.8918   -0.0646   19.3298 O.2     1  <0>        -0.2697
     21 F1         -9.9872    5.8803   19.1935 F       1  <0>        -0.2043
     22 S1         -7.5756   -2.2884   20.7107 S.3     1  <0>        -0.0605
     23 S2        -11.4650    4.4458   21.4171 S.3     1  <0>        -0.0512
     24 H1        -13.3788    5.4712   19.9014 H       1  <0>         0.0432
     25 H2        -14.2921    6.9472   20.3633 H       1  <0>         0.0432
     26 H3        -13.1495    6.9946   18.9780 H       1  <0>         0.0432
     27 H4        -10.2959    8.9640   22.5614 H       1  <0>         0.0843
     28 H5         -8.1220   -3.3531   24.1209 H       1  <0>         0.0835
     29 H6        -12.3384    9.1116   20.8880 H       1  <0>         0.0799
     30 H7         -7.3434   -4.4682   21.9253 H       1  <0>         0.0709
     31 H8        -10.1666    1.9844   21.4824 H       1  <0>         0.0638
     32 H9         -8.0905    4.6842   17.9218 H       1  <0>         0.0665
     33 H10        -6.8901    1.3635   18.4137 H       1  <0>         0.1423
     34 H11        -7.3889    2.3073   17.1782 H       1  <0>         0.1423
     35 H12        -8.5583    0.8752   22.2114 H       1  <0>         0.1571
@<TRIPOS>BOND
     1     1    19    1
     2     2     4    2
     3     2    17    1
     4     3     5    2
     5     3    16    1
     6     4    19    1
     7     5    22    1
     8     6     8   ar
     9     6    11   ar
    10     7     9   ar
    11     7    10   ar
    12     8     9   ar
    13     8    14    1
    14     9    15    1
    15    10    11   ar
    16    10    21    1
    17    11    23    1
    18    12    16    2
    19    12    18    1
    20    12    22    1
    21    13    17    2
    22    13    19    1
    23    13    23    1
    24    14    18   am
    25    14    20    2
    26     1    24    1
    27     1    25    1
    28     1    26    1
    29     2    27    1
    30     3    28    1
    31     4    29    1
    32     5    30    1
    33     6    31    1
    34     7    32    1
    35    15    33    1
    36    15    34    1
    37    18    35    1
@<TRIPOS>SUBSTRUCTURE
     1 <0>         1 TEMP              0 ****  ****    0 ROOT

