
##########                                Name:        MRK_501_3F9M
##########                    Molecular_Weight:             349.413
##########                DOCK_Rotatable_Bonds:                   5
##########                       Formal_Charge:        -0.000200003
##########                     HBond_Acceptors:                   9
##########                        HBond_Donors:                   3
##########                         Heavy_Atoms:                  23
##########                            HA_RMSDs:               0.324
##########                            HA_RMSDh:               0.324
##########                            HA_RMSDm:               0.324
##########                          Grid_Score:          -54.096184
##########                     Grid_vdw_energy:          -52.346214
##########                      Grid_es_energy:           -1.749968
##########           Internal_energy_repulsive:           19.455990

@<TRIPOS>MOLECULE
MRK_501_3F9M
 35 37 1 0 0
SMALL
USER_CHARGES


@<TRIPOS>ATOM
      1 C1        -13.3467    6.8488   19.8853 C.3     1  <0>         0.0071
      2 C2        -11.0574    7.9664   22.5134 C.2     1  <0>         0.0442
      3 C3         -8.0952   -2.6285   23.3338 C.2     1  <0>         0.0368
      4 C4        -12.0072    8.2164   21.5360 C.2     1  <0>         0.0164
      5 C5         -7.6231   -3.2331   22.1805 C.2     1  <0>        -0.0030
      6 C6         -9.8396    2.6795   20.6785 C.ar    1  <0>        -0.0312
      7 C7         -8.5625    4.2429   18.7859 C.ar    1  <0>        -0.0039
      8 C8         -8.7186    2.1942   20.0112 C.ar    1  <0>         0.0589
      9 C9         -8.0750    2.9739   19.0504 C.ar    1  <0>         0.0396
     10 C10        -9.6862    4.7244   19.4479 C.ar    1  <0>         0.1389
     11 C11       -10.3258    3.9440   20.4058 C.ar    1  <0>         0.0513
     12 C12        -8.2017   -0.9055   21.9524 C.2     1  <0>         0.1646
     13 C13       -11.6355    6.1439   21.6101 C.2     1  <0>         0.1649
     14 C14        -8.2505    0.8269   20.3574 C.2     1  <0>         0.2515
     15 N1         -6.9833    2.5328   18.3715 N.pl3   1  <0>        -0.3573
     16 N2         -8.4102   -1.3119   23.1909 N.2     1  <0>        -0.2330
     17 N3        -10.8190    6.6312   22.5537 N.2     1  <0>        -0.2322
     18 N4         -8.4443    0.3829   21.5958 N.am    1  <0>        -0.2606
     19 N5        -12.3642    7.0549   20.9741 N.pl3   1  <0>        -0.2877
     20 O1         -7.7519    0.1368   19.4978 O.2     1  <0>        -0.2697
     21 F1        -10.1286    5.9658   19.1404 F       1  <0>        -0.2043
     22 S1         -7.5824   -2.1076   20.8671 S.3     1  <0>        -0.0605
     23 S2        -11.7381    4.4581   21.2194 S.3     1  <0>        -0.0512
     24 H1        -13.4137    5.7765   19.6492 H       1  <0>         0.0432
     25 H2        -14.3327    7.2155   20.2070 H       1  <0>         0.0432
     26 H3        -13.0238    7.4015   18.9908 H       1  <0>         0.0432
     27 H4        -10.5857    8.7100   23.1387 H       1  <0>         0.0843
     28 H5         -8.2044   -3.1577   24.2689 H       1  <0>         0.0835
     29 H6        -12.3958    9.1886   21.2710 H       1  <0>         0.0799
     30 H7         -7.3211   -4.2677   22.1106 H       1  <0>         0.0709
     31 H8        -10.3334    2.0630   21.4152 H       1  <0>         0.0638
     32 H9         -8.0643    4.8653   18.0574 H       1  <0>         0.0665
     33 H10        -6.7554    1.6065   18.6715 H       1  <0>         0.1423
     34 H11        -7.1807    2.5264   17.3913 H       1  <0>         0.1423
     35 H12        -8.7806    1.0201   22.2894 H       1  <0>         0.1571
@<TRIPOS>BOND
     1     1    19    1
     2     2     4    2
     3     2    17    1
     4     3     5    2
     5     3    16    1
     6     4    19    1
     7     5    22    1
     8     6     8   ar
     9     6    11   ar
    10     7     9   ar
    11     7    10   ar
    12     8     9   ar
    13     8    14    1
    14     9    15    1
    15    10    11   ar
    16    10    21    1
    17    11    23    1
    18    12    16    2
    19    12    18    1
    20    12    22    1
    21    13    17    2
    22    13    19    1
    23    13    23    1
    24    14    18   am
    25    14    20    2
    26     1    24    1
    27     1    25    1
    28     1    26    1
    29     2    27    1
    30     3    28    1
    31     4    29    1
    32     5    30    1
    33     6    31    1
    34     7    32    1
    35    15    33    1
    36    15    34    1
    37    18    35    1
@<TRIPOS>SUBSTRUCTURE
     1 <0>         1 TEMP              0 ****  ****    0 ROOT

