
##########                                Name:        4BO_901_3CHP
##########                    Molecular_Weight:             314.341
##########                DOCK_Rotatable_Bonds:                   8
##########                       Formal_Charge:         0.000200048
##########                     HBond_Acceptors:                   6
##########                        HBond_Donors:                   4
##########                         Heavy_Atoms:                  23
##########                            HA_RMSDs:               1.175
##########                            HA_RMSDh:               1.175
##########                            HA_RMSDm:               1.047
##########                          Grid_Score:          -44.478371
##########                     Grid_vdw_energy:          -42.552376
##########                      Grid_es_energy:           -1.925996
##########           Internal_energy_repulsive:           37.128250

@<TRIPOS>MOLECULE
4BO_901_3CHP
 41 42 1 0 0
SMALL
USER_CHARGES


@<TRIPOS>ATOM
      1 C1          9.6875   36.4213   72.1036 C.ar    1  <0>        -0.0617
      2 C2          8.9644   35.7149   71.1363 C.ar    1  <0>        -0.0614
      3 C3          9.7038   37.8273   72.0781 C.ar    1  <0>        -0.0614
      4 C4          8.2567   36.4076   70.1431 C.ar    1  <0>        -0.0564
      5 C5          8.9976   38.5238   71.0856 C.ar    1  <0>        -0.0564
      6 C6          9.2130   42.5644   67.0607 C.ar    1  <0>        -0.0380
      7 C7         10.4945   40.5111   66.9208 C.ar    1  <0>        -0.0380
      8 C8          8.2658   41.9103   67.8706 C.ar    1  <0>        -0.0299
      9 C9          9.5503   39.8561   67.7199 C.ar    1  <0>        -0.0299
     10 C10         7.5906   38.4775   69.0851 C.3     1  <0>         0.0792
     11 C11        14.7131   43.2606   65.4235 C.3     1  <0>         0.0385
     12 C12         8.2723   37.8123   70.1101 C.ar    1  <0>        -0.0214
     13 C13        10.3402   41.8732   66.5832 C.ar    1  <0>         0.0337
     14 C14         8.4274   40.5528   68.2062 C.ar    1  <0>         0.0767
     15 C15        13.3655   43.0334   64.6962 C.3     1  <0>         0.0586
     16 C16        15.7352   42.1214   65.1878 C.2     1  <0>         0.0476
     17 C17        12.4526   42.0370   65.4353 C.2     1  <0>         0.2657
     18 N1         12.6708   44.3030   64.5416 N.4     1  <0>         0.2276
     19 N2         11.3063   42.5716   65.9246 N.am    1  <0>        -0.2809
     20 O1         16.9232   42.3440   65.5378 O.co2   1  <0>        -0.5496
     21 O2         15.3119   41.0637   64.6598 O.co2   1  <0>        -0.5496
     22 O3         12.8080   40.8688   65.5913 O.2     1  <0>        -0.2693
     23 O4          7.4852   39.9377   69.0146 O.3     1  <0>        -0.3401
     24 H1         10.2323   35.8877   72.8685 H       1  <0>         0.0618
     25 H2          8.9511   34.6351   71.1545 H       1  <0>         0.0618
     26 H3         10.2617   38.3728   72.8248 H       1  <0>         0.0618
     27 H4          7.6970   35.8587   69.4001 H       1  <0>         0.0621
     28 H5          9.0102   39.6036   71.0696 H       1  <0>         0.0621
     29 H6          9.0730   43.6041   66.8043 H       1  <0>         0.0637
     30 H7         11.3535   39.9666   66.5572 H       1  <0>         0.0637
     31 H8          7.4080   42.4543   68.2375 H       1  <0>         0.0644
     32 H9          9.6834   38.8126   67.9643 H       1  <0>         0.0644
     33 H10         8.1025   38.1801   68.1579 H       1  <0>         0.0615
     34 H11         6.5536   38.1160   69.1464 H       1  <0>         0.0615
     35 H12        15.1512   44.1983   65.0511 H       1  <0>         0.0385
     36 H13        14.5143   43.3264   66.5034 H       1  <0>         0.0385
     37 H14        13.5981   42.5995   63.7125 H       1  <0>         0.0952
     38 H15        11.8011   44.1526   64.0716 H       1  <0>         0.2002
     39 H16        12.4981   44.7002   65.4429 H       1  <0>         0.2002
     40 H17        13.2362   44.9288   64.0041 H       1  <0>         0.2002
     41 H18        11.1594   43.5519   65.7920 H       1  <0>         0.1550
@<TRIPOS>BOND
     1     1     2   ar
     2     1     3   ar
     3     2     4   ar
     4     3     5   ar
     5     4    12   ar
     6     5    12   ar
     7     6     8   ar
     8     6    13   ar
     9     7     9   ar
    10     7    13   ar
    11     8    14   ar
    12     9    14   ar
    13    10    12    1
    14    10    23    1
    15    11    15    1
    16    11    16    1
    17    13    19    1
    18    14    23    1
    19    15    17    1
    20    15    18    1
    21    16    20    1
    22    16    21    2
    23    17    19   am
    24    17    22    2
    25     1    24    1
    26     2    25    1
    27     3    26    1
    28     4    27    1
    29     5    28    1
    30     6    29    1
    31     7    30    1
    32     8    31    1
    33     9    32    1
    34    10    33    1
    35    10    34    1
    36    11    35    1
    37    11    36    1
    38    15    37    1
    39    18    38    1
    40    18    39    1
    41    18    40    1
    42    19    41    1
@<TRIPOS>SUBSTRUCTURE
     1 <0>         1 TEMP              0 ****  ****    0 ROOT

