
##########                                Name:        4BO_901_3CHP
##########                    Molecular_Weight:             314.341
##########                DOCK_Rotatable_Bonds:                   8
##########                       Formal_Charge:         0.000200048
##########                     HBond_Acceptors:                   6
##########                        HBond_Donors:                   4
##########                         Heavy_Atoms:                  23
##########                            HA_RMSDs:               1.142
##########                            HA_RMSDh:               1.142
##########                            HA_RMSDm:               1.022
##########                          Grid_Score:          -46.691971
##########                     Grid_vdw_energy:          -43.884026
##########                      Grid_es_energy:           -2.807946
##########           Internal_energy_repulsive:           20.956400

@<TRIPOS>MOLECULE
4BO_901_3CHP
 41 42 1 0 0
SMALL
USER_CHARGES


@<TRIPOS>ATOM
      1 C1          9.4058   36.4159   72.7667 C.ar    1  <0>        -0.0617
      2 C2          8.7633   35.6284   71.8051 C.ar    1  <0>        -0.0614
      3 C3          9.6059   37.7875   72.5292 C.ar    1  <0>        -0.0614
      4 C4          8.3192   36.2058   70.6065 C.ar    1  <0>        -0.0564
      5 C5          9.1637   38.3686   71.3310 C.ar    1  <0>        -0.0564
      6 C6          9.7234   42.3788   67.6571 C.ar    1  <0>        -0.0380
      7 C7         10.2137   40.4075   66.3336 C.ar    1  <0>        -0.0380
      8 C8          8.8349   41.6218   68.4435 C.ar    1  <0>        -0.0299
      9 C9          9.3250   39.6540   67.1094 C.ar    1  <0>        -0.0299
     10 C10         8.1028   38.1173   69.1412 C.3     1  <0>         0.0792
     11 C11        14.6891   43.3549   65.5179 C.3     1  <0>         0.0385
     12 C12         8.5198   37.5749   70.3618 C.ar    1  <0>        -0.0214
     13 C13        10.4267   41.7777   66.5985 C.ar    1  <0>         0.0337
     14 C14         8.6296   40.2551   68.1760 C.ar    1  <0>         0.0767
     15 C15        13.4178   43.0117   64.7039 C.3     1  <0>         0.0586
     16 C16        15.7497   42.2268   65.5009 C.2     1  <0>         0.0476
     17 C17        12.5159   41.9860   65.4160 C.2     1  <0>         0.2657
     18 N1         12.6583   44.2257   64.4441 N.4     1  <0>         0.2276
     19 N2         11.3821   42.5019   65.9523 N.am    1  <0>        -0.2809
     20 O1         16.7504   42.3778   66.2487 O.co2   1  <0>        -0.5496
     21 O2         15.5428   41.2489   64.7408 O.co2   1  <0>        -0.5496
     22 O3         12.8694   40.8107   65.5120 O.2     1  <0>        -0.2693
     23 O4          7.7577   39.5319   68.9739 O.3     1  <0>        -0.3401
     24 H1          9.7474   35.9711   73.6897 H       1  <0>         0.0618
     25 H2          8.6090   34.5749   71.9860 H       1  <0>         0.0618
     26 H3         10.1015   38.3956   73.2715 H       1  <0>         0.0618
     27 H4          7.8209   35.5952   69.8681 H       1  <0>         0.0621
     28 H5          9.3168   39.4226   71.1522 H       1  <0>         0.0621
     29 H6          9.8659   43.4283   67.8681 H       1  <0>         0.0637
     30 H7         10.7440   39.9338   65.5207 H       1  <0>         0.0637
     31 H8          8.3063   42.0934   69.2588 H       1  <0>         0.0644
     32 H9          9.1723   38.6078   66.8891 H       1  <0>         0.0644
     33 H10         8.9371   37.9397   68.4467 H       1  <0>         0.0615
     34 H11         7.1894   37.5643   68.8769 H       1  <0>         0.0615
     35 H12        15.1415   44.2590   65.0843 H       1  <0>         0.0385
     36 H13        14.3916   43.5317   66.5621 H       1  <0>         0.0385
     37 H14        13.7515   42.5568   63.7596 H       1  <0>         0.0952
     38 H15        11.8382   44.0003   63.9184 H       1  <0>         0.2002
     39 H16        12.3927   44.6447   65.3124 H       1  <0>         0.2002
     40 H17        13.2224   44.8666   63.9232 H       1  <0>         0.2002
     41 H18        11.2367   43.4876   65.8670 H       1  <0>         0.1550
@<TRIPOS>BOND
     1     1     2   ar
     2     1     3   ar
     3     2     4   ar
     4     3     5   ar
     5     4    12   ar
     6     5    12   ar
     7     6     8   ar
     8     6    13   ar
     9     7     9   ar
    10     7    13   ar
    11     8    14   ar
    12     9    14   ar
    13    10    12    1
    14    10    23    1
    15    11    15    1
    16    11    16    1
    17    13    19    1
    18    14    23    1
    19    15    17    1
    20    15    18    1
    21    16    20    1
    22    16    21    2
    23    17    19   am
    24    17    22    2
    25     1    24    1
    26     2    25    1
    27     3    26    1
    28     4    27    1
    29     5    28    1
    30     6    29    1
    31     7    30    1
    32     8    31    1
    33     9    32    1
    34    10    33    1
    35    10    34    1
    36    11    35    1
    37    11    36    1
    38    15    37    1
    39    18    38    1
    40    18    39    1
    41    18    40    1
    42    19    41    1
@<TRIPOS>SUBSTRUCTURE
     1 <0>         1 TEMP              0 ****  ****    0 ROOT

