
##########                                Name:        4BO_901_3CHP
##########                    Molecular_Weight:             314.341
##########                DOCK_Rotatable_Bonds:                   8
##########                       Formal_Charge:         0.000200048
##########                     HBond_Acceptors:                   6
##########                        HBond_Donors:                   4
##########                         Heavy_Atoms:                  23
##########                            HA_RMSDs:               0.482
##########                            HA_RMSDh:               0.482
##########                            HA_RMSDm:               0.482
##########                          Grid_Score:          -43.830498
##########                     Grid_vdw_energy:          -47.414780
##########                      Grid_es_energy:            3.584283
##########           Internal_energy_repulsive:           36.696301

@<TRIPOS>MOLECULE
4BO_901_3CHP
 41 42 1 0 0
SMALL
USER_CHARGES


@<TRIPOS>ATOM
      1 C1         10.4192   36.4699   73.3686 C.ar    1  <0>        -0.0617
      2 C2          9.6243   35.4726   72.7931 C.ar    1  <0>        -0.0614
      3 C3         10.4471   37.7572   72.8028 C.ar    1  <0>        -0.0614
      4 C4          8.8564   35.7560   71.6541 C.ar    1  <0>        -0.0564
      5 C5          9.6808   38.0442   71.6629 C.ar    1  <0>        -0.0564
      6 C6          8.8145   41.6678   68.1172 C.ar    1  <0>        -0.0380
      7 C7          9.6817   39.7581   66.9012 C.ar    1  <0>        -0.0380
      8 C8          8.1095   40.7970   68.9690 C.ar    1  <0>        -0.0299
      9 C9          8.9757   38.8900   67.7421 C.ar    1  <0>        -0.0299
     10 C10         8.1388   37.2840   69.9228 C.3     1  <0>         0.0792
     11 C11        13.7092   42.8575   65.1387 C.3     1  <0>         0.0385
     12 C12         8.8832   37.0391   71.0820 C.ar    1  <0>        -0.0214
     13 C13         9.6129   41.1570   67.0790 C.ar    1  <0>         0.0337
     14 C14         8.1851   39.4030   68.7882 C.ar    1  <0>         0.0767
     15 C15        12.1785   42.8216   64.9098 C.3     1  <0>         0.0586
     16 C16        14.4379   41.6008   64.6021 C.2     1  <0>         0.0476
     17 C17        11.4932   41.6639   65.6598 C.2     1  <0>         0.2657
     18 N1         11.5897   44.0850   65.3282 N.4     1  <0>         0.2276
     19 N2         10.3919   42.0182   66.3675 N.am    1  <0>        -0.2809
     20 O1         15.6688   41.5111   64.8471 O.co2   1  <0>        -0.5496
     21 O2         13.7555   40.7672   63.9570 O.co2   1  <0>        -0.5496
     22 O3         11.9794   40.5333   65.6322 O.2     1  <0>        -0.2693
     23 O4          7.4896   38.5692   69.6489 O.3     1  <0>        -0.3401
     24 H1         11.0102   36.2516   74.2458 H       1  <0>         0.0618
     25 H2          9.6020   34.4836   73.2264 H       1  <0>         0.0618
     26 H3         11.0603   38.5272   73.2470 H       1  <0>         0.0618
     27 H4          8.2417   34.9843   71.2147 H       1  <0>         0.0621
     28 H5          9.7025   39.0342   71.2318 H       1  <0>         0.0621
     29 H6          8.7417   42.7355   68.2621 H       1  <0>         0.0637
     30 H7         10.2878   39.3520   66.1048 H       1  <0>         0.0637
     31 H8          7.5056   41.2015   69.7678 H       1  <0>         0.0644
     32 H9          9.0377   37.8228   67.5880 H       1  <0>         0.0644
     33 H10         8.8425   37.1332   69.0909 H       1  <0>         0.0615
     34 H11         7.3225   36.5470   69.9431 H       1  <0>         0.0615
     35 H12        14.1142   43.7382   64.6188 H       1  <0>         0.0385
     36 H13        13.8937   42.9262   66.2210 H       1  <0>         0.0385
     37 H14        12.0162   42.6586   63.8341 H       1  <0>         0.0952
     38 H15        10.6013   44.0582   65.1790 H       1  <0>         0.2002
     39 H16        11.7761   44.2340   66.2993 H       1  <0>         0.2002
     40 H17        11.9872   44.8311   64.7939 H       1  <0>         0.2002
     41 H18        10.1323   42.9840   66.3668 H       1  <0>         0.1550
@<TRIPOS>BOND
     1     1     2   ar
     2     1     3   ar
     3     2     4   ar
     4     3     5   ar
     5     4    12   ar
     6     5    12   ar
     7     6     8   ar
     8     6    13   ar
     9     7     9   ar
    10     7    13   ar
    11     8    14   ar
    12     9    14   ar
    13    10    12    1
    14    10    23    1
    15    11    15    1
    16    11    16    1
    17    13    19    1
    18    14    23    1
    19    15    17    1
    20    15    18    1
    21    16    20    1
    22    16    21    2
    23    17    19   am
    24    17    22    2
    25     1    24    1
    26     2    25    1
    27     3    26    1
    28     4    27    1
    29     5    28    1
    30     6    29    1
    31     7    30    1
    32     8    31    1
    33     9    32    1
    34    10    33    1
    35    10    34    1
    36    11    35    1
    37    11    36    1
    38    15    37    1
    39    18    38    1
    40    18    39    1
    41    18    40    1
    42    19    41    1
@<TRIPOS>SUBSTRUCTURE
     1 <0>         1 TEMP              0 ****  ****    0 ROOT

