
##########                                Name:        4BO_901_3CHP
##########                    Molecular_Weight:             314.341
##########                DOCK_Rotatable_Bonds:                   8
##########                       Formal_Charge:         0.000200048
##########                     HBond_Acceptors:                   6
##########                        HBond_Donors:                   4
##########                         Heavy_Atoms:                  23
##########                            HA_RMSDs:              10.684
##########                            HA_RMSDh:              10.274
##########                            HA_RMSDm:               9.274
##########                          Grid_Score:          -59.260963
##########                     Grid_vdw_energy:          -44.488430
##########                      Grid_es_energy:          -14.772532
##########           Internal_energy_repulsive:           25.016985

@<TRIPOS>MOLECULE
4BO_901_3CHP
 41 42 1 0 0
SMALL
USER_CHARGES


@<TRIPOS>ATOM
      1 C1         23.4260   41.2110   70.1207 C.ar    1  <0>        -0.0617
      2 C2         23.1101   42.5375   70.4340 C.ar    1  <0>        -0.0614
      3 C3         23.0273   40.6687   68.8858 C.ar    1  <0>        -0.0614
      4 C4         22.3973   43.3253   69.5183 C.ar    1  <0>        -0.0564
      5 C5         22.3134   41.4535   67.9675 C.ar    1  <0>        -0.0564
      6 C6         18.1919   41.5478   64.3660 C.ar    1  <0>        -0.0380
      7 C7         17.3455   43.2880   65.8265 C.ar    1  <0>        -0.0380
      8 C8         19.5073   41.8898   64.7316 C.ar    1  <0>        -0.0299
      9 C9         18.6529   43.6353   66.1861 C.ar    1  <0>        -0.0299
     10 C10        21.2484   43.5829   67.4062 C.3     1  <0>         0.0792
     11 C11        12.4325   41.4561   65.7276 C.3     1  <0>         0.0385
     12 C12        21.9928   42.7879   68.2846 C.ar    1  <0>        -0.0214
     13 C13        17.0976   42.2390   64.9148 C.ar    1  <0>         0.0337
     14 C14        19.7473   42.9348   65.6438 C.ar    1  <0>         0.0767
     15 C15        13.4005   41.7310   64.5511 C.3     1  <0>         0.0586
     16 C16        11.5518   42.6762   66.0933 C.2     1  <0>         0.0476
     17 C17        14.6970   42.4306   65.0003 C.2     1  <0>         0.2657
     18 N1         13.7315   40.4801   63.8850 N.4     1  <0>         0.2276
     19 N2         15.8396   41.7891   64.6507 N.am    1  <0>        -0.2809
     20 O1         10.7235   42.5181   67.0272 O.co2   1  <0>        -0.5496
     21 O2         11.7190   43.7301   65.4315 O.co2   1  <0>        -0.5496
     22 O3         14.6449   43.4615   65.6712 O.2     1  <0>        -0.2693
     23 O4         21.0521   43.2422   65.9943 O.3     1  <0>        -0.3401
     24 H1         23.9751   40.6046   70.8258 H       1  <0>         0.0618
     25 H2         23.4155   42.9553   71.3820 H       1  <0>         0.0618
     26 H3         23.2713   39.6449   68.6436 H       1  <0>         0.0618
     27 H4         22.1581   44.3498   69.7626 H       1  <0>         0.0621
     28 H5         22.0103   41.0351   67.0191 H       1  <0>         0.0621
     29 H6         18.0220   40.7490   63.6593 H       1  <0>         0.0637
     30 H7         16.5144   43.8305   66.2525 H       1  <0>         0.0637
     31 H8         20.3392   41.3461   64.3089 H       1  <0>         0.0644
     32 H9         18.8228   44.4434   66.8822 H       1  <0>         0.0644
     33 H10        20.2370   43.6200   67.8374 H       1  <0>         0.0615
     34 H11        21.7561   44.5587   67.3996 H       1  <0>         0.0615
     35 H12        11.7692   40.6268   65.4407 H       1  <0>         0.0385
     36 H13        13.0314   41.1872   66.6102 H       1  <0>         0.0385
     37 H14        12.8827   42.4108   63.8585 H       1  <0>         0.0952
     38 H15        14.3567   40.6614   63.1259 H       1  <0>         0.2002
     39 H16        14.1698   39.8613   64.5370 H       1  <0>         0.2002
     40 H17        12.8955   40.0578   63.5345 H       1  <0>         0.2002
     41 H18        15.7518   40.9207   64.1625 H       1  <0>         0.1550
@<TRIPOS>BOND
     1     1     2   ar
     2     1     3   ar
     3     2     4   ar
     4     3     5   ar
     5     4    12   ar
     6     5    12   ar
     7     6     8   ar
     8     6    13   ar
     9     7     9   ar
    10     7    13   ar
    11     8    14   ar
    12     9    14   ar
    13    10    12    1
    14    10    23    1
    15    11    15    1
    16    11    16    1
    17    13    19    1
    18    14    23    1
    19    15    17    1
    20    15    18    1
    21    16    20    1
    22    16    21    2
    23    17    19   am
    24    17    22    2
    25     1    24    1
    26     2    25    1
    27     3    26    1
    28     4    27    1
    29     5    28    1
    30     6    29    1
    31     7    30    1
    32     8    31    1
    33     9    32    1
    34    10    33    1
    35    10    34    1
    36    11    35    1
    37    11    36    1
    38    15    37    1
    39    18    38    1
    40    18    39    1
    41    18    40    1
    42    19    41    1
@<TRIPOS>SUBSTRUCTURE
     1 <0>         1 TEMP              0 ****  ****    0 ROOT

