
##########                                Name:        4BO_901_3CHP
##########                    Molecular_Weight:             314.341
##########                DOCK_Rotatable_Bonds:                   8
##########                       Formal_Charge:         0.000200048
##########                     HBond_Acceptors:                   6
##########                        HBond_Donors:                   4
##########                         Heavy_Atoms:                  23
##########                            HA_RMSDs:              11.679
##########                            HA_RMSDh:              11.352
##########                            HA_RMSDm:              10.393
##########                          Grid_Score:          -54.905342
##########                     Grid_vdw_energy:          -45.567081
##########                      Grid_es_energy:           -9.338261
##########           Internal_energy_repulsive:           23.753632

@<TRIPOS>MOLECULE
4BO_901_3CHP
 41 42 1 0 0
SMALL
USER_CHARGES


@<TRIPOS>ATOM
      1 C1         24.0731   41.3339   70.5943 C.ar    1  <0>        -0.0617
      2 C2         23.7075   42.6714   70.7819 C.ar    1  <0>        -0.0614
      3 C3         23.6784   40.6569   69.4265 C.ar    1  <0>        -0.0614
      4 C4         22.9489   43.3359   69.8071 C.ar    1  <0>        -0.0564
      5 C5         22.9188   41.3181   68.4494 C.ar    1  <0>        -0.0564
      6 C6         20.5549   40.2896   64.4868 C.ar    1  <0>        -0.0380
      7 C7         18.8181   41.9617   64.7419 C.ar    1  <0>        -0.0380
      8 C8         21.4622   41.1409   65.1447 C.ar    1  <0>        -0.0299
      9 C9         19.7201   42.8135   65.3899 C.ar    1  <0>        -0.0299
     10 C10        21.7584   43.3378   67.7023 C.3     1  <0>         0.0792
     11 C11        15.9484   37.5941   64.0730 C.3     1  <0>         0.0385
     12 C12        22.5483   42.6636   68.6401 C.ar    1  <0>        -0.0214
     13 C13        19.2222   40.6886   64.2846 C.ar    1  <0>         0.0337
     14 C14        21.0518   42.4079   65.6011 C.ar    1  <0>         0.0767
     15 C15        16.2126   38.7818   63.1159 C.3     1  <0>         0.0586
     16 C16        15.2540   38.0138   65.3920 C.2     1  <0>         0.0476
     17 C17        16.9897   39.9272   63.7918 C.2     1  <0>         0.2657
     18 N1         16.9505   38.3184   61.9502 N.4     1  <0>         0.2276
     19 N2         18.3384   39.7862   63.7752 N.am    1  <0>        -0.2809
     20 O1         15.2240   37.1583   66.3142 O.co2   1  <0>        -0.5496
     21 O2         14.7653   39.1691   65.4468 O.co2   1  <0>        -0.5496
     22 O3         16.3842   40.8487   64.3392 O.2     1  <0>        -0.2693
     23 O4         21.9634   43.2203   66.2558 O.3     1  <0>        -0.3401
     24 H1         24.6574   40.8225   71.3449 H       1  <0>         0.0618
     25 H2         24.0097   43.1926   71.6782 H       1  <0>         0.0618
     26 H3         23.9607   39.6246   69.2813 H       1  <0>         0.0618
     27 H4         22.6714   44.3692   69.9542 H       1  <0>         0.0621
     28 H5         22.6189   40.7964   67.5527 H       1  <0>         0.0621
     29 H6         20.8848   39.3233   64.1348 H       1  <0>         0.0637
     30 H7         17.7983   42.2829   64.5894 H       1  <0>         0.0637
     31 H8         22.4814   40.8197   65.3008 H       1  <0>         0.0644
     32 H9         19.3934   43.7854   65.7292 H       1  <0>         0.0644
     33 H10        20.7331   42.9803   67.8785 H       1  <0>         0.0615
     34 H11        21.8928   44.4062   67.9269 H       1  <0>         0.0615
     35 H12        15.2976   36.8737   63.5558 H       1  <0>         0.0385
     36 H13        16.9151   37.1335   64.3247 H       1  <0>         0.0385
     37 H14        15.2319   39.1808   62.8173 H       1  <0>         0.0952
     38 H15        17.1194   39.0880   61.3344 H       1  <0>         0.2002
     39 H16        17.8235   37.9276   62.2422 H       1  <0>         0.2002
     40 H17        16.4158   37.6209   61.4730 H       1  <0>         0.2002
     41 H18        18.7120   38.9578   63.3579 H       1  <0>         0.1550
@<TRIPOS>BOND
     1     1     2   ar
     2     1     3   ar
     3     2     4   ar
     4     3     5   ar
     5     4    12   ar
     6     5    12   ar
     7     6     8   ar
     8     6    13   ar
     9     7     9   ar
    10     7    13   ar
    11     8    14   ar
    12     9    14   ar
    13    10    12    1
    14    10    23    1
    15    11    15    1
    16    11    16    1
    17    13    19    1
    18    14    23    1
    19    15    17    1
    20    15    18    1
    21    16    20    1
    22    16    21    2
    23    17    19   am
    24    17    22    2
    25     1    24    1
    26     2    25    1
    27     3    26    1
    28     4    27    1
    29     5    28    1
    30     6    29    1
    31     7    30    1
    32     8    31    1
    33     9    32    1
    34    10    33    1
    35    10    34    1
    36    11    35    1
    37    11    36    1
    38    15    37    1
    39    18    38    1
    40    18    39    1
    41    18    40    1
    42    19    41    1
@<TRIPOS>SUBSTRUCTURE
     1 <0>         1 TEMP              0 ****  ****    0 ROOT

