
##########                                Name:        4BO_901_3CHP
##########                    Molecular_Weight:             314.341
##########                DOCK_Rotatable_Bonds:                   8
##########                       Formal_Charge:         0.000200048
##########                     HBond_Acceptors:                   6
##########                        HBond_Donors:                   4
##########                         Heavy_Atoms:                  23
##########                            HA_RMSDs:              11.113
##########                            HA_RMSDh:              10.717
##########                            HA_RMSDm:               9.604
##########                          Grid_Score:          -56.724380
##########                     Grid_vdw_energy:          -46.077526
##########                      Grid_es_energy:          -10.646853
##########           Internal_energy_repulsive:           13.352880

@<TRIPOS>MOLECULE
4BO_901_3CHP
 41 42 1 0 0
SMALL
USER_CHARGES


@<TRIPOS>ATOM
      1 C1         24.5815   42.6625   69.8039 C.ar    1  <0>        -0.0617
      2 C2         24.0914   43.9576   70.0042 C.ar    1  <0>        -0.0614
      3 C3         23.9392   41.8031   68.8946 C.ar    1  <0>        -0.0614
      4 C4         22.9618   44.3983   69.2993 C.ar    1  <0>        -0.0564
      5 C5         22.8085   42.2403   68.1881 C.ar    1  <0>        -0.0564
      6 C6         18.3004   41.8701   64.6539 C.ar    1  <0>        -0.0380
      7 C7         17.2769   43.6134   65.9921 C.ar    1  <0>        -0.0380
      8 C8         19.5732   42.3260   65.0452 C.ar    1  <0>        -0.0299
      9 C9         18.5415   44.0737   66.3770 C.ar    1  <0>        -0.0299
     10 C10        21.1653   43.9941   67.7320 C.3     1  <0>         0.0792
     11 C11        12.4721   41.6339   65.6521 C.3     1  <0>         0.0385
     12 C12        22.3135   43.5431   68.3923 C.ar    1  <0>        -0.0214
     13 C13        17.1395   42.5050   65.1287 C.ar    1  <0>         0.0337
     14 C14        19.7030   43.4299   65.9091 C.ar    1  <0>         0.0767
     15 C15        13.5160   41.7608   64.5159 C.3     1  <0>         0.0586
     16 C16        11.3576   42.7069   65.5817 C.2     1  <0>         0.0476
     17 C17        14.7402   42.6008   64.9258 C.2     1  <0>         0.2657
     18 N1         13.9547   40.4363   64.1020 N.4     1  <0>         0.2276
     19 N2         15.9279   41.9508   64.8462 N.am    1  <0>        -0.2809
     20 O1         10.3839   42.5653   66.3660 O.co2   1  <0>        -0.5496
     21 O2         11.4984   43.6339   64.7466 O.co2   1  <0>        -0.5496
     22 O3         14.5927   43.7507   65.3397 O.2     1  <0>        -0.2693
     23 O4         20.9683   43.8497   66.2868 O.3     1  <0>        -0.3401
     24 H1         25.4515   42.3233   70.3467 H       1  <0>         0.0618
     25 H2         24.5835   44.6186   70.7024 H       1  <0>         0.0618
     26 H3         24.3175   40.8035   68.7395 H       1  <0>         0.0618
     27 H4         22.5885   45.3999   69.4544 H       1  <0>         0.0621
     28 H5         22.3185   41.5790   67.4888 H       1  <0>         0.0621
     29 H6         18.2150   41.0269   63.9845 H       1  <0>         0.0637
     30 H7         16.3935   44.1135   66.3610 H       1  <0>         0.0637
     31 H8         20.4574   41.8250   64.6797 H       1  <0>         0.0644
     32 H9         18.6266   44.9257   67.0352 H       1  <0>         0.0644
     33 H10        20.3322   43.4433   68.1932 H       1  <0>         0.0615
     34 H11        21.1304   45.0771   67.9212 H       1  <0>         0.0615
     35 H12        12.0007   40.6429   65.5770 H       1  <0>         0.0385
     36 H13        12.9951   41.7437   66.6136 H       1  <0>         0.0385
     37 H14        13.0239   42.2818   63.6814 H       1  <0>         0.0952
     38 H15        14.6286   40.5220   63.3683 H       1  <0>         0.2002
     39 H16        14.3679   39.9638   64.8805 H       1  <0>         0.2002
     40 H17        13.1687   39.9127   63.7729 H       1  <0>         0.2002
     41 H18        15.9129   40.9932   64.5587 H       1  <0>         0.1550
@<TRIPOS>BOND
     1     1     2   ar
     2     1     3   ar
     3     2     4   ar
     4     3     5   ar
     5     4    12   ar
     6     5    12   ar
     7     6     8   ar
     8     6    13   ar
     9     7     9   ar
    10     7    13   ar
    11     8    14   ar
    12     9    14   ar
    13    10    12    1
    14    10    23    1
    15    11    15    1
    16    11    16    1
    17    13    19    1
    18    14    23    1
    19    15    17    1
    20    15    18    1
    21    16    20    1
    22    16    21    2
    23    17    19   am
    24    17    22    2
    25     1    24    1
    26     2    25    1
    27     3    26    1
    28     4    27    1
    29     5    28    1
    30     6    29    1
    31     7    30    1
    32     8    31    1
    33     9    32    1
    34    10    33    1
    35    10    34    1
    36    11    35    1
    37    11    36    1
    38    15    37    1
    39    18    38    1
    40    18    39    1
    41    18    40    1
    42    19    41    1
@<TRIPOS>SUBSTRUCTURE
     1 <0>         1 TEMP              0 ****  ****    0 ROOT

