
##########                                Name:        4BO_901_3CHP
##########                    Molecular_Weight:             314.341
##########                DOCK_Rotatable_Bonds:                   8
##########                       Formal_Charge:         0.000200048
##########                     HBond_Acceptors:                   6
##########                        HBond_Donors:                   4
##########                         Heavy_Atoms:                  23
##########                            HA_RMSDs:              10.308
##########                            HA_RMSDh:               9.921
##########                            HA_RMSDm:               9.011
##########                          Grid_Score:          -53.903130
##########                     Grid_vdw_energy:          -41.346565
##########                      Grid_es_energy:          -12.556562
##########           Internal_energy_repulsive:           39.594215

@<TRIPOS>MOLECULE
4BO_901_3CHP
 41 42 1 0 0
SMALL
USER_CHARGES


@<TRIPOS>ATOM
      1 C1         21.5786   40.9965   71.0424 C.ar    1  <0>        -0.0617
      2 C2         21.7601   42.3161   70.6145 C.ar    1  <0>        -0.0614
      3 C3         21.5141   39.9563   70.0980 C.ar    1  <0>        -0.0614
      4 C4         21.8779   42.6014   69.2463 C.ar    1  <0>        -0.0564
      5 C5         21.6308   40.2378   68.7283 C.ar    1  <0>        -0.0564
      6 C6         18.2722   39.8914   64.4616 C.ar    1  <0>        -0.0380
      7 C7         18.0880   42.1781   65.2457 C.ar    1  <0>        -0.0380
      8 C8         19.6178   39.8655   64.8734 C.ar    1  <0>        -0.0299
      9 C9         19.4280   42.1576   65.6494 C.ar    1  <0>        -0.0299
     10 C10        21.8908   41.8834   66.9372 C.3     1  <0>         0.0792
     11 C11        12.7167   41.7585   65.5140 C.3     1  <0>         0.0385
     12 C12        21.8104   41.5669   68.2978 C.ar    1  <0>        -0.0214
     13 C13        17.4919   41.0456   64.6496 C.ar    1  <0>         0.0337
     14 C14        20.2050   40.9972   65.4701 C.ar    1  <0>         0.0767
     15 C15        13.7844   41.5520   64.4120 C.3     1  <0>         0.0586
     16 C16        12.1911   43.2131   65.5917 C.2     1  <0>         0.0476
     17 C17        15.2176   41.7942   64.9214 C.2     1  <0>         0.2657
     18 N1         13.6828   40.2024   63.8767 N.4     1  <0>         0.2276
     19 N2         16.1598   40.9880   64.3722 N.am    1  <0>        -0.2809
     20 O1         11.2339   43.4288   66.3794 O.co2   1  <0>        -0.5496
     21 O2         12.7482   44.0698   64.8621 O.co2   1  <0>        -0.5496
     22 O3         15.4303   42.6290   65.8008 O.2     1  <0>        -0.2693
     23 O4         21.5285   40.9393   65.8763 O.3     1  <0>        -0.3401
     24 H1         21.4881   40.7770   72.0960 H       1  <0>         0.0618
     25 H2         21.8096   43.1160   71.3385 H       1  <0>         0.0618
     26 H3         21.3743   38.9375   70.4280 H       1  <0>         0.0618
     27 H4         22.0211   43.6210   68.9202 H       1  <0>         0.0621
     28 H5         21.5831   39.4368   68.0055 H       1  <0>         0.0621
     29 H6         17.8361   39.0189   63.9981 H       1  <0>         0.0637
     30 H7         17.5015   43.0731   65.3923 H       1  <0>         0.0637
     31 H8         20.2045   38.9701   64.7304 H       1  <0>         0.0644
     32 H9         19.8676   43.0352   66.1001 H       1  <0>         0.0644
     33 H10        21.2178   42.7429   66.8008 H       1  <0>         0.0615
     34 H11        22.9490   42.1251   66.7593 H       1  <0>         0.0615
     35 H12        11.8657   41.0964   65.2968 H       1  <0>         0.0385
     36 H13        13.1695   41.5041   66.4836 H       1  <0>         0.0385
     37 H14        13.5848   42.2944   63.6253 H       1  <0>         0.0952
     38 H15        14.3736   40.0726   63.1655 H       1  <0>         0.2002
     39 H16        13.8323   39.5405   64.6112 H       1  <0>         0.2002
     40 H17        12.7724   40.0667   63.4857 H       1  <0>         0.2002
     41 H18        15.8536   40.2998   63.7145 H       1  <0>         0.1550
@<TRIPOS>BOND
     1     1     2   ar
     2     1     3   ar
     3     2     4   ar
     4     3     5   ar
     5     4    12   ar
     6     5    12   ar
     7     6     8   ar
     8     6    13   ar
     9     7     9   ar
    10     7    13   ar
    11     8    14   ar
    12     9    14   ar
    13    10    12    1
    14    10    23    1
    15    11    15    1
    16    11    16    1
    17    13    19    1
    18    14    23    1
    19    15    17    1
    20    15    18    1
    21    16    20    1
    22    16    21    2
    23    17    19   am
    24    17    22    2
    25     1    24    1
    26     2    25    1
    27     3    26    1
    28     4    27    1
    29     5    28    1
    30     6    29    1
    31     7    30    1
    32     8    31    1
    33     9    32    1
    34    10    33    1
    35    10    34    1
    36    11    35    1
    37    11    36    1
    38    15    37    1
    39    18    38    1
    40    18    39    1
    41    18    40    1
    42    19    41    1
@<TRIPOS>SUBSTRUCTURE
     1 <0>         1 TEMP              0 ****  ****    0 ROOT

