
##########                                Name:        4BO_901_3CHP
##########                    Molecular_Weight:             314.341
##########                DOCK_Rotatable_Bonds:                   8
##########                       Formal_Charge:         0.000200048
##########                     HBond_Acceptors:                   6
##########                        HBond_Donors:                   4
##########                         Heavy_Atoms:                  23
##########                            HA_RMSDs:               8.786
##########                            HA_RMSDh:               8.064
##########                            HA_RMSDm:               6.634
##########                          Grid_Score:          -49.754066
##########                     Grid_vdw_energy:          -37.291828
##########                      Grid_es_energy:          -12.462236
##########           Internal_energy_repulsive:           16.192738

@<TRIPOS>MOLECULE
4BO_901_3CHP
 41 42 1 0 0
SMALL
USER_CHARGES


@<TRIPOS>ATOM
      1 C1         19.4382   43.3745   68.5604 C.ar    1  <0>        -0.0617
      2 C2         18.5307   44.4046   68.8306 C.ar    1  <0>        -0.0614
      3 C3         19.2747   42.5801   67.4115 C.ar    1  <0>        -0.0614
      4 C4         17.4599   44.6449   67.9571 C.ar    1  <0>        -0.0564
      5 C5         18.2043   42.8170   66.5357 C.ar    1  <0>        -0.0564
      6 C6         13.3602   40.3655   65.2971 C.ar    1  <0>        -0.0380
      7 C7         12.2583   42.4400   65.8972 C.ar    1  <0>        -0.0380
      8 C8         14.5432   41.0792   65.0285 C.ar    1  <0>        -0.0299
      9 C9         13.4312   43.1532   65.6236 C.ar    1  <0>        -0.0299
     10 C10        16.1900   44.0873   65.9763 C.3     1  <0>         0.0792
     11 C11         9.1481   39.0207   68.5308 C.3     1  <0>         0.0385
     12 C12        17.2891   43.8521   66.8096 C.ar    1  <0>        -0.0214
     13 C13        12.2080   41.0378   65.7405 C.ar    1  <0>         0.0337
     14 C14        14.5875   42.4769   65.1899 C.ar    1  <0>         0.0767
     15 C15         8.9930   39.7410   67.1693 C.3     1  <0>         0.0586
     16 C16         8.1205   39.4882   69.5909 C.2     1  <0>         0.0476
     17 C17        10.1170   40.7606   66.9058 C.2     1  <0>         0.2657
     18 N1          8.9682   38.7598   66.0947 N.4     1  <0>         0.2276
     19 N2         11.1289   40.3026   66.1274 N.am    1  <0>        -0.2809
     20 O1          8.0860   38.8427   70.6704 O.co2   1  <0>        -0.5496
     21 O2          7.3921   40.4682   69.2984 O.co2   1  <0>        -0.5496
     22 O3         10.0799   41.8737   67.4303 O.2     1  <0>        -0.2693
     23 O4         15.7690   43.1521   64.9291 O.3     1  <0>        -0.3401
     24 H1         20.2628   43.1898   69.2330 H       1  <0>         0.0618
     25 H2         18.6549   45.0154   69.7126 H       1  <0>         0.0618
     26 H3         19.9752   41.7852   67.2025 H       1  <0>         0.0618
     27 H4         16.7634   45.4430   68.1675 H       1  <0>         0.0621
     28 H5         18.0824   42.2068   65.6530 H       1  <0>         0.0621
     29 H6         13.3375   39.2943   65.1618 H       1  <0>         0.0637
     30 H7         11.3792   42.9699   66.2330 H       1  <0>         0.0637
     31 H8         15.4240   40.5502   64.6957 H       1  <0>         0.0644
     32 H9         13.4493   44.2262   65.7456 H       1  <0>         0.0644
     33 H10        15.3270   44.1697   66.6534 H       1  <0>         0.0615
     34 H11        16.4227   45.0245   65.4496 H       1  <0>         0.0615
     35 H12         9.0072   37.9421   68.3673 H       1  <0>         0.0385
     36 H13        10.1576   39.2268   68.9160 H       1  <0>         0.0385
     37 H14         8.0451   40.2979   67.2042 H       1  <0>         0.0952
     38 H15         8.8680   39.2284   65.2170 H       1  <0>         0.2002
     39 H16         9.8221   38.2394   66.0989 H       1  <0>         0.2002
     40 H17         8.1974   38.1371   66.2298 H       1  <0>         0.2002
     41 H18        11.0788   39.3542   65.8142 H       1  <0>         0.1550
@<TRIPOS>BOND
     1     1     2   ar
     2     1     3   ar
     3     2     4   ar
     4     3     5   ar
     5     4    12   ar
     6     5    12   ar
     7     6     8   ar
     8     6    13   ar
     9     7     9   ar
    10     7    13   ar
    11     8    14   ar
    12     9    14   ar
    13    10    12    1
    14    10    23    1
    15    11    15    1
    16    11    16    1
    17    13    19    1
    18    14    23    1
    19    15    17    1
    20    15    18    1
    21    16    20    1
    22    16    21    2
    23    17    19   am
    24    17    22    2
    25     1    24    1
    26     2    25    1
    27     3    26    1
    28     4    27    1
    29     5    28    1
    30     6    29    1
    31     7    30    1
    32     8    31    1
    33     9    32    1
    34    10    33    1
    35    10    34    1
    36    11    35    1
    37    11    36    1
    38    15    37    1
    39    18    38    1
    40    18    39    1
    41    18    40    1
    42    19    41    1
@<TRIPOS>SUBSTRUCTURE
     1 <0>         1 TEMP              0 ****  ****    0 ROOT

