
##########                                Name:        4BO_901_3CHP
##########                    Molecular_Weight:             314.341
##########                DOCK_Rotatable_Bonds:                   8
##########                       Formal_Charge:         0.000200048
##########                     HBond_Acceptors:                   6
##########                        HBond_Donors:                   4
##########                         Heavy_Atoms:                  23
##########                            HA_RMSDs:               1.321
##########                            HA_RMSDh:               1.321
##########                            HA_RMSDm:               1.161
##########                          Grid_Score:          -51.135490
##########                     Grid_vdw_energy:          -45.687698
##########                      Grid_es_energy:           -5.447790
##########           Internal_energy_repulsive:           25.313707

@<TRIPOS>MOLECULE
4BO_901_3CHP
 41 42 1 0 0
SMALL
USER_CHARGES


@<TRIPOS>ATOM
      1 C1          9.6105   36.2648   72.1025 C.ar    1  <0>        -0.0617
      2 C2          8.7658   35.6157   71.1955 C.ar    1  <0>        -0.0614
      3 C3          9.7800   37.6589   72.0277 C.ar    1  <0>        -0.0614
      4 C4          8.0890   36.3538   70.2135 C.ar    1  <0>        -0.0564
      5 C5          9.1051   38.4007   71.0463 C.ar    1  <0>        -0.0564
      6 C6          9.0605   42.5093   66.9287 C.ar    1  <0>        -0.0380
      7 C7         10.3793   40.4809   66.7732 C.ar    1  <0>        -0.0380
      8 C8          8.1855   41.8641   67.8226 C.ar    1  <0>        -0.0299
      9 C9          9.5065   39.8344   67.6561 C.ar    1  <0>        -0.0299
     10 C10         7.6017   38.4534   69.1174 C.3     1  <0>         0.0792
     11 C11        14.2923   43.8473   65.2974 C.3     1  <0>         0.0385
     12 C12         8.2573   37.7464   70.1313 C.ar    1  <0>        -0.0214
     13 C13        10.1699   41.8263   66.4003 C.ar    1  <0>         0.0337
     14 C14         8.4020   40.5233   68.1928 C.ar    1  <0>         0.0767
     15 C15        13.1698   43.0943   64.5425 C.3     1  <0>         0.0586
     16 C16        15.5784   43.0045   65.4806 C.2     1  <0>         0.0476
     17 C17        12.3640   42.1556   65.4599 C.2     1  <0>         0.2657
     18 N1         12.2689   44.0525   63.9193 N.4     1  <0>         0.2276
     19 N2         11.0727   42.5217   65.6545 N.am    1  <0>        -0.2809
     20 O1         16.5082   43.5267   66.1485 O.co2   1  <0>        -0.5496
     21 O2         15.6071   41.8684   64.9467 O.co2   1  <0>        -0.5496
     22 O3         12.9113   41.1916   65.9953 O.2     1  <0>        -0.2693
     23 O4          7.5309   39.9170   69.0836 O.3     1  <0>        -0.3401
     24 H1         10.1314   35.6963   72.8587 H       1  <0>         0.0618
     25 H2          8.6348   34.5451   71.2515 H       1  <0>         0.0618
     26 H3         10.4317   38.1603   72.7279 H       1  <0>         0.0618
     27 H4          7.4354   35.8494   69.5172 H       1  <0>         0.0621
     28 H5          9.2355   39.4714   70.9925 H       1  <0>         0.0621
     29 H6          8.8786   43.5358   66.6469 H       1  <0>         0.0637
     30 H7         11.2251   39.9427   66.3714 H       1  <0>         0.0637
     31 H8          7.3411   42.4019   68.2276 H       1  <0>         0.0644
     32 H9          9.6810   38.8035   67.9267 H       1  <0>         0.0644
     33 H10         8.1158   38.1679   68.1878 H       1  <0>         0.0615
     34 H11         6.5559   38.1150   69.1595 H       1  <0>         0.0615
     35 H12        14.5504   44.7478   64.7208 H       1  <0>         0.0385
     36 H13        13.9142   44.1191   66.2940 H       1  <0>         0.0385
     37 H14        13.6564   42.4701   63.7786 H       1  <0>         0.0952
     38 H15        11.5454   43.5628   63.4328 H       1  <0>         0.2002
     39 H16        11.8620   44.6342   64.6237 H       1  <0>         0.2002
     40 H17        12.7803   44.6192   63.2732 H       1  <0>         0.2002
     41 H18        10.7601   43.3653   65.2179 H       1  <0>         0.1550
@<TRIPOS>BOND
     1     1     2   ar
     2     1     3   ar
     3     2     4   ar
     4     3     5   ar
     5     4    12   ar
     6     5    12   ar
     7     6     8   ar
     8     6    13   ar
     9     7     9   ar
    10     7    13   ar
    11     8    14   ar
    12     9    14   ar
    13    10    12    1
    14    10    23    1
    15    11    15    1
    16    11    16    1
    17    13    19    1
    18    14    23    1
    19    15    17    1
    20    15    18    1
    21    16    20    1
    22    16    21    2
    23    17    19   am
    24    17    22    2
    25     1    24    1
    26     2    25    1
    27     3    26    1
    28     4    27    1
    29     5    28    1
    30     6    29    1
    31     7    30    1
    32     8    31    1
    33     9    32    1
    34    10    33    1
    35    10    34    1
    36    11    35    1
    37    11    36    1
    38    15    37    1
    39    18    38    1
    40    18    39    1
    41    18    40    1
    42    19    41    1
@<TRIPOS>SUBSTRUCTURE
     1 <0>         1 TEMP              0 ****  ****    0 ROOT

