
##########                                Name:        RMA_601_1S3B
##########                    Molecular_Weight:             188.293
##########                DOCK_Rotatable_Bonds:                   3
##########                       Formal_Charge:                   1
##########                     HBond_Acceptors:                   1
##########                        HBond_Donors:                   1
##########                         Heavy_Atoms:                  14
##########                            HA_RMSDs:               0.475
##########                            HA_RMSDh:               0.475
##########                            HA_RMSDm:               0.475
##########                          Grid_Score:         -125.275162
##########                     Grid_vdw_energy:          -35.811047
##########                      Grid_es_energy:          -89.464119
##########           Internal_energy_repulsive:            4.439745

@<TRIPOS>MOLECULE
RMA_601_1S3B
 32 33 1 0 0
SMALL
USER_CHARGES


@<TRIPOS>ATOM
      1 C1         54.1244  152.6418   25.6959 C.3     1  <0>        -0.0422
      2 C2         55.0780  151.7550   21.9108 C.2     1  <0>        -0.0977
      3 C3         50.8918  154.1594   29.0859 C.ar    1  <0>        -0.0615
      4 C4         50.7751  152.9986   28.3310 C.ar    1  <0>        -0.0613
      5 C5         51.4950  155.2863   28.5487 C.ar    1  <0>        -0.0581
      6 C6         51.2438  152.9429   27.0258 C.ar    1  <0>        -0.0530
      7 C7         52.6418  156.3113   26.5019 C.3     1  <0>        -0.0218
      8 C8         53.0848  155.6193   25.1992 C.3     1  <0>        -0.0013
      9 C9         53.5087  152.8365   23.5546 C.3     1  <0>        -0.0130
     10 C10        54.5801  151.8326   23.1058 C.2     1  <0>        -0.0465
     11 C11        51.9629  155.2134   27.2531 C.ar    1  <0>        -0.0387
     12 C12        51.8452  154.0743   26.5096 C.ar    1  <0>         0.0033
     13 C13        52.4177  154.2367   25.1278 C.3     1  <0>         0.0056
     14 N1         53.3891  153.1946   24.7904 N.4     1  <0>         0.2413
     15 H1         53.8823  153.0722   26.6788 H       1  <0>         0.0778
     16 H2         53.9326  151.5588   25.7128 H       1  <0>         0.0778
     17 H3         55.1851  152.8229   25.4677 H       1  <0>         0.0778
     18 H4         54.7398  152.4317   21.1399 H       1  <0>         0.0534
     19 H5         55.8307  151.0137   21.6865 H       1  <0>         0.0534
     20 H6         50.5106  154.1839   30.0962 H       1  <0>         0.0618
     21 H7         50.3122  152.1255   28.7670 H       1  <0>         0.0618
     22 H8         51.5955  156.1931   29.1267 H       1  <0>         0.0620
     23 H9         51.1418  152.0454   26.4337 H       1  <0>         0.0622
     24 H10        53.4999  156.7148   27.0595 H       1  <0>         0.0315
     25 H11        51.9590  157.1507   26.3040 H       1  <0>         0.0315
     26 H12        52.7788  156.2251   24.3336 H       1  <0>         0.0327
     27 H13        54.1788  155.5053   25.1919 H       1  <0>         0.0327
     28 H14        53.7189  153.7616   22.9978 H       1  <0>         0.0861
     29 H15        52.5448  152.3805   23.2844 H       1  <0>         0.0861
     30 H16        54.9484  151.1355   23.8440 H       1  <0>         0.0619
     31 H17        51.6515  154.1512   24.3432 H       1  <0>         0.0904
     32 H18        53.4425  152.9453   25.7574 H       1  <0>         0.2040
@<TRIPOS>BOND
     1     1    14    1
     2     2    10    2
     3     3     4   ar
     4     3     5   ar
     5     4     6   ar
     6     5    11   ar
     7     6    12   ar
     8     7     8    1
     9     7    11    1
    10     8    13    1
    11     9    10    1
    12     9    14    1
    13    11    12   ar
    14    12    13    1
    15    13    14    1
    16     1    15    1
    17     1    16    1
    18     1    17    1
    19     2    18    1
    20     2    19    1
    21     3    20    1
    22     4    21    1
    23     5    22    1
    24     6    23    1
    25     7    24    1
    26     7    25    1
    27     8    26    1
    28     8    27    1
    29     9    28    1
    30     9    29    1
    31    10    30    1
    32    13    31    1
    33    14    32    1
@<TRIPOS>SUBSTRUCTURE
     1 <0>         1 TEMP              0 ****  ****    0 ROOT

