
##########                                Name:        RMA_601_1S3B
##########                    Molecular_Weight:             188.293
##########                DOCK_Rotatable_Bonds:                   3
##########                       Formal_Charge:                   1
##########                     HBond_Acceptors:                   1
##########                        HBond_Donors:                   1
##########                         Heavy_Atoms:                  14
##########                            HA_RMSDs:               0.872
##########                            HA_RMSDh:               0.872
##########                            HA_RMSDm:               0.858
##########                          Grid_Score:         -123.722588
##########                     Grid_vdw_energy:          -33.738419
##########                      Grid_es_energy:          -89.984169
##########           Internal_energy_repulsive:            6.654315

@<TRIPOS>MOLECULE
RMA_601_1S3B
 32 33 1 0 0
SMALL
USER_CHARGES


@<TRIPOS>ATOM
      1 C1         53.9543  152.1123   25.7658 C.3     1  <0>        -0.0422
      2 C2         55.5421  151.8106   22.0865 C.2     1  <0>        -0.0977
      3 C3         50.7734  153.5980   29.1140 C.ar    1  <0>        -0.0615
      4 C4         50.7660  152.4204   28.3763 C.ar    1  <0>        -0.0613
      5 C5         51.2751  154.7669   28.5621 C.ar    1  <0>        -0.0581
      6 C6         51.2445  152.3882   27.0738 C.ar    1  <0>        -0.0530
      7 C7         52.3350  155.8612   26.5044 C.3     1  <0>        -0.0218
      8 C8         52.8453  155.1930   25.2140 C.3     1  <0>        -0.0013
      9 C9         53.7266  152.6592   23.6091 C.3     1  <0>        -0.0130
     10 C10        54.8902  151.7425   23.2056 C.2     1  <0>        -0.0465
     11 C11        51.7542  154.7176   27.2695 C.ar    1  <0>        -0.0387
     12 C12        51.7438  153.5617   26.5429 C.ar    1  <0>         0.0033
     13 C13        52.3063  153.7548   25.1610 C.3     1  <0>         0.0056
     14 N1         53.3697  152.8000   24.8431 N.4     1  <0>         0.2413
     15 H1         53.5193  152.3656   26.7438 H       1  <0>         0.0778
     16 H2         53.8127  151.0394   25.5685 H       1  <0>         0.0778
     17 H3         55.0292  152.3455   25.7713 H       1  <0>         0.0778
     18 H4         55.2775  152.5570   21.3521 H       1  <0>         0.0534
     19 H5         56.3493  151.1209   21.8889 H       1  <0>         0.0534
     20 H6         50.3865  153.6028   30.1224 H       1  <0>         0.0618
     21 H7         50.3817  151.5156   28.8237 H       1  <0>         0.0618
     22 H8         51.2902  155.6874   29.1267 H       1  <0>         0.0620
     23 H9         51.2270  151.4765   26.4950 H       1  <0>         0.0622
     24 H10        53.1502  156.3488   27.0591 H       1  <0>         0.0315
     25 H11        51.5801  156.6323   26.2913 H       1  <0>         0.0315
     26 H12        52.4903  155.7559   24.3382 H       1  <0>         0.0327
     27 H13        53.9452  155.1783   25.2125 H       1  <0>         0.0327
     28 H14        54.0107  153.6653   23.2669 H       1  <0>         0.0861
     29 H15        52.8427  152.2609   23.0894 H       1  <0>         0.0861
     30 H16        55.1897  150.9803   23.9098 H       1  <0>         0.0619
     31 H17        51.5550  153.5889   24.3749 H       1  <0>         0.0904
     32 H18        53.2592  152.3907   25.7487 H       1  <0>         0.2040
@<TRIPOS>BOND
     1     1    14    1
     2     2    10    2
     3     3     4   ar
     4     3     5   ar
     5     4     6   ar
     6     5    11   ar
     7     6    12   ar
     8     7     8    1
     9     7    11    1
    10     8    13    1
    11     9    10    1
    12     9    14    1
    13    11    12   ar
    14    12    13    1
    15    13    14    1
    16     1    15    1
    17     1    16    1
    18     1    17    1
    19     2    18    1
    20     2    19    1
    21     3    20    1
    22     4    21    1
    23     5    22    1
    24     6    23    1
    25     7    24    1
    26     7    25    1
    27     8    26    1
    28     8    27    1
    29     9    28    1
    30     9    29    1
    31    10    30    1
    32    13    31    1
    33    14    32    1
@<TRIPOS>SUBSTRUCTURE
     1 <0>         1 TEMP              0 ****  ****    0 ROOT

