
##########                                Name:        RMA_601_1S3B
##########                    Molecular_Weight:             188.293
##########                DOCK_Rotatable_Bonds:                   3
##########                       Formal_Charge:                   1
##########                     HBond_Acceptors:                   1
##########                        HBond_Donors:                   1
##########                         Heavy_Atoms:                  14
##########                            HA_RMSDs:               7.634
##########                            HA_RMSDh:               7.392
##########                            HA_RMSDm:               6.391
##########                          Grid_Score:         -123.405014
##########                     Grid_vdw_energy:          -33.360603
##########                      Grid_es_energy:          -90.044411
##########           Internal_energy_repulsive:           34.763157

@<TRIPOS>MOLECULE
RMA_601_1S3B
 32 33 1 0 0
SMALL
USER_CHARGES


@<TRIPOS>ATOM
      1 C1         53.5326  149.4484   23.9368 C.3     1  <0>        -0.0422
      2 C2         51.6550  152.4322   25.6433 C.2     1  <0>        -0.0977
      3 C3         54.3507  147.5037   19.4656 C.ar    1  <0>        -0.0615
      4 C4         54.6921  147.1943   20.7766 C.ar    1  <0>        -0.0613
      5 C5         54.1110  148.8184   19.0961 C.ar    1  <0>        -0.0581
      6 C6         54.8142  148.1875   21.7384 C.ar    1  <0>        -0.0530
      7 C7         54.0086  151.2576   19.8674 C.3     1  <0>        -0.0218
      8 C8         54.1079  151.8201   21.2976 C.3     1  <0>        -0.0013
      9 C9         53.4104  151.6807   24.0038 C.3     1  <0>        -0.0130
     10 C10        52.6379  151.6462   25.3301 C.2     1  <0>        -0.0465
     11 C11        54.2285  149.7936   20.0646 C.ar    1  <0>        -0.0387
     12 C12        54.5676  149.4907   21.3520 C.ar    1  <0>         0.0033
     13 C13        54.6435  150.7155   22.2222 C.3     1  <0>         0.0056
     14 N1         53.8336  150.5996   23.4363 N.4     1  <0>         0.2413
     15 H1         53.9783  148.6528   23.3218 H       1  <0>         0.0778
     16 H2         53.9238  149.3813   24.9627 H       1  <0>         0.0778
     17 H3         52.4391  149.3303   23.9527 H       1  <0>         0.0778
     18 H4         51.3218  153.1851   24.9443 H       1  <0>         0.0534
     19 H5         51.1698  152.3340   26.6032 H       1  <0>         0.0534
     20 H6         54.2715  146.7160   18.7309 H       1  <0>         0.0618
     21 H7         54.8654  146.1643   21.0516 H       1  <0>         0.0618
     22 H8         53.8408  149.0712   18.0815 H       1  <0>         0.0620
     23 H9         55.0924  147.9496   22.7545 H       1  <0>         0.0622
     24 H10        53.0263  151.4638   19.4171 H       1  <0>         0.0315
     25 H11        54.7686  151.6969   19.2045 H       1  <0>         0.0315
     26 H12        54.7919  152.6814   21.3120 H       1  <0>         0.0327
     27 H13        53.1136  152.1425   21.6405 H       1  <0>         0.0327
     28 H14        52.7297  152.1488   23.2775 H       1  <0>         0.0861
     29 H15        54.3098  152.2824   24.2013 H       1  <0>         0.0861
     30 H16        52.9366  150.9087   26.0603 H       1  <0>         0.0619
     31 H17        55.6607  150.9021   22.5969 H       1  <0>         0.0904
     32 H18        54.1291  149.6489   23.5306 H       1  <0>         0.2040
@<TRIPOS>BOND
     1     1    14    1
     2     2    10    2
     3     3     4   ar
     4     3     5   ar
     5     4     6   ar
     6     5    11   ar
     7     6    12   ar
     8     7     8    1
     9     7    11    1
    10     8    13    1
    11     9    10    1
    12     9    14    1
    13    11    12   ar
    14    12    13    1
    15    13    14    1
    16     1    15    1
    17     1    16    1
    18     1    17    1
    19     2    18    1
    20     2    19    1
    21     3    20    1
    22     4    21    1
    23     5    22    1
    24     6    23    1
    25     7    24    1
    26     7    25    1
    27     8    26    1
    28     8    27    1
    29     9    28    1
    30     9    29    1
    31    10    30    1
    32    13    31    1
    33    14    32    1
@<TRIPOS>SUBSTRUCTURE
     1 <0>         1 TEMP              0 ****  ****    0 ROOT

