
##########                                Name:        RMA_601_1S3B
##########                    Molecular_Weight:             188.293
##########                DOCK_Rotatable_Bonds:                   3
##########                       Formal_Charge:                   1
##########                     HBond_Acceptors:                   1
##########                        HBond_Donors:                   1
##########                         Heavy_Atoms:                  14
##########                            HA_RMSDs:               0.640
##########                            HA_RMSDh:               0.640
##########                            HA_RMSDm:               0.640
##########                          Grid_Score:         -123.853943
##########                     Grid_vdw_energy:          -34.123070
##########                      Grid_es_energy:          -89.730873
##########           Internal_energy_repulsive:            4.585711

@<TRIPOS>MOLECULE
RMA_601_1S3B
 32 33 1 0 0
SMALL
USER_CHARGES


@<TRIPOS>ATOM
      1 C1         54.1866  152.4931   25.6495 C.3     1  <0>        -0.0422
      2 C2         54.8174  151.3420   21.8223 C.2     1  <0>        -0.0977
      3 C3         50.8953  153.7051   29.1237 C.ar    1  <0>        -0.0615
      4 C4         50.8541  152.5429   28.3629 C.ar    1  <0>        -0.0613
      5 C5         51.3964  154.8790   28.5821 C.ar    1  <0>        -0.0581
      6 C6         51.2974  152.5316   27.0478 C.ar    1  <0>        -0.0530
      7 C7         52.4147  156.0025   26.5191 C.3     1  <0>        -0.0218
      8 C8         52.8825  155.3549   25.2025 C.3     1  <0>        -0.0013
      9 C9         53.4646  152.5951   23.5350 C.3     1  <0>        -0.0130
     10 C10        54.6970  151.8436   23.0121 C.2     1  <0>        -0.0465
     11 C11        51.8405  154.8504   27.2764 C.ar    1  <0>        -0.0387
     12 C12        51.7968  153.7098   26.5273 C.ar    1  <0>         0.0033
     13 C13        52.3248  153.9244   25.1351 C.3     1  <0>         0.0056
     14 N1         53.3677  152.9640   24.7698 N.4     1  <0>         0.2413
     15 H1         53.9506  152.9189   26.6358 H       1  <0>         0.0778
     16 H2         54.0905  151.3981   25.6904 H       1  <0>         0.0778
     17 H3         55.2167  152.7609   25.3716 H       1  <0>         0.0778
     18 H4         54.0100  151.4383   21.1114 H       1  <0>         0.0534
     19 H5         55.7250  150.8280   21.5422 H       1  <0>         0.0534
     20 H6         50.5353  153.6938   30.1419 H       1  <0>         0.0618
     21 H7         50.4707  151.6337   28.8022 H       1  <0>         0.0618
     22 H8         51.4377  155.7876   29.1644 H       1  <0>         0.0620
     23 H9         51.2536  151.6322   26.4515 H       1  <0>         0.0622
     24 H10        53.2502  156.4693   27.0615 H       1  <0>         0.0315
     25 H11        51.6639  156.7866   26.3417 H       1  <0>         0.0315
     26 H12        52.5113  155.9395   24.3478 H       1  <0>         0.0327
     27 H13        53.9817  155.3275   25.1713 H       1  <0>         0.0327
     28 H14        53.4110  153.5217   22.9447 H       1  <0>         0.0861
     29 H15        52.6120  151.9226   23.3598 H       1  <0>         0.0861
     30 H16        55.5299  151.7231   23.6890 H       1  <0>         0.0619
     31 H17        51.5510  153.7833   24.3661 H       1  <0>         0.0904
     32 H18        53.4842  152.7378   25.7369 H       1  <0>         0.2040
@<TRIPOS>BOND
     1     1    14    1
     2     2    10    2
     3     3     4   ar
     4     3     5   ar
     5     4     6   ar
     6     5    11   ar
     7     6    12   ar
     8     7     8    1
     9     7    11    1
    10     8    13    1
    11     9    10    1
    12     9    14    1
    13    11    12   ar
    14    12    13    1
    15    13    14    1
    16     1    15    1
    17     1    16    1
    18     1    17    1
    19     2    18    1
    20     2    19    1
    21     3    20    1
    22     4    21    1
    23     5    22    1
    24     6    23    1
    25     7    24    1
    26     7    25    1
    27     8    26    1
    28     8    27    1
    29     9    28    1
    30     9    29    1
    31    10    30    1
    32    13    31    1
    33    14    32    1
@<TRIPOS>SUBSTRUCTURE
     1 <0>         1 TEMP              0 ****  ****    0 ROOT

