
##########                                Name:        RMA_601_1S3B
##########                    Molecular_Weight:             188.293
##########                DOCK_Rotatable_Bonds:                   3
##########                       Formal_Charge:                   1
##########                     HBond_Acceptors:                   1
##########                        HBond_Donors:                   1
##########                         Heavy_Atoms:                  14
##########                            HA_RMSDs:               0.760
##########                            HA_RMSDh:               0.760
##########                            HA_RMSDm:               0.754
##########                          Grid_Score:         -125.511795
##########                     Grid_vdw_energy:          -36.105606
##########                      Grid_es_energy:          -89.406189
##########           Internal_energy_repulsive:            4.812270

@<TRIPOS>MOLECULE
RMA_601_1S3B
 32 33 1 0 0
SMALL
USER_CHARGES


@<TRIPOS>ATOM
      1 C1         54.3372  152.4986   25.6021 C.3     1  <0>        -0.0422
      2 C2         55.1364  151.1503   21.8743 C.2     1  <0>        -0.0977
      3 C3         50.8905  153.7892   28.8771 C.ar    1  <0>        -0.0615
      4 C4         50.9131  152.5933   28.1697 C.ar    1  <0>        -0.0613
      5 C5         51.3806  154.9520   28.3024 C.ar    1  <0>        -0.0581
      6 C6         51.4106  152.5360   26.8753 C.ar    1  <0>        -0.0530
      7 C7         52.4516  156.0114   26.2322 C.3     1  <0>        -0.0218
      8 C8         52.9913  155.3193   24.9666 C.3     1  <0>        -0.0013
      9 C9         53.7369  152.5286   23.4478 C.3     1  <0>        -0.0130
     10 C10        54.9423  151.6656   23.0485 C.2     1  <0>        -0.0465
     11 C11        51.8790  154.8779   27.0183 C.ar    1  <0>        -0.0387
     12 C12        51.8980  153.7039   26.3214 C.ar    1  <0>         0.0033
     13 C13        52.4769  153.8713   24.9430 C.3     1  <0>         0.0056
     14 N1         53.5604  152.9269   24.6644 N.4     1  <0>         0.2413
     15 H1         54.0349  152.9440   26.5614 H       1  <0>         0.0778
     16 H2         54.2633  151.4030   25.6673 H       1  <0>         0.0778
     17 H3         55.3754  152.7835   25.3767 H       1  <0>         0.0778
     18 H4         54.4173  151.3169   21.0858 H       1  <0>         0.0534
     19 H5         56.0170  150.5545   21.6850 H       1  <0>         0.0534
     20 H6         50.4891  153.8130   29.8795 H       1  <0>         0.0618
     21 H7         50.5374  151.6938   28.6348 H       1  <0>         0.0618
     22 H8         51.3725  155.8867   28.8434 H       1  <0>         0.0620
     23 H9         51.4165  151.6098   26.3199 H       1  <0>         0.0622
     24 H10        53.2506  156.5266   26.7855 H       1  <0>         0.0315
     25 H11        51.6872  156.7640   25.9889 H       1  <0>         0.0315
     26 H12        52.6396  155.8537   24.0717 H       1  <0>         0.0327
     27 H13        54.0912  155.3232   24.9807 H       1  <0>         0.0327
     28 H14        53.8173  153.4454   22.8453 H       1  <0>         0.0861
     29 H15        52.8489  151.9278   23.2017 H       1  <0>         0.0861
     30 H16        55.6878  151.4724   23.8056 H       1  <0>         0.0619
     31 H17        51.7398  153.6729   24.1510 H       1  <0>         0.0904
     32 H18        53.6256  152.7287   25.6424 H       1  <0>         0.2040
@<TRIPOS>BOND
     1     1    14    1
     2     2    10    2
     3     3     4   ar
     4     3     5   ar
     5     4     6   ar
     6     5    11   ar
     7     6    12   ar
     8     7     8    1
     9     7    11    1
    10     8    13    1
    11     9    10    1
    12     9    14    1
    13    11    12   ar
    14    12    13    1
    15    13    14    1
    16     1    15    1
    17     1    16    1
    18     1    17    1
    19     2    18    1
    20     2    19    1
    21     3    20    1
    22     4    21    1
    23     5    22    1
    24     6    23    1
    25     7    24    1
    26     7    25    1
    27     8    26    1
    28     8    27    1
    29     9    28    1
    30     9    29    1
    31    10    30    1
    32    13    31    1
    33    14    32    1
@<TRIPOS>SUBSTRUCTURE
     1 <0>         1 TEMP              0 ****  ****    0 ROOT

