
##########                                Name:        RMA_601_1S3B
##########                    Molecular_Weight:             188.293
##########                DOCK_Rotatable_Bonds:                   3
##########                       Formal_Charge:                   1
##########                     HBond_Acceptors:                   1
##########                        HBond_Donors:                   1
##########                         Heavy_Atoms:                  14
##########                            HA_RMSDs:               0.818
##########                            HA_RMSDh:               0.818
##########                            HA_RMSDm:               0.790
##########                          Grid_Score:         -125.451828
##########                     Grid_vdw_energy:          -35.972797
##########                      Grid_es_energy:          -89.479027
##########           Internal_energy_repulsive:            4.925873

@<TRIPOS>MOLECULE
RMA_601_1S3B
 32 33 1 0 0
SMALL
USER_CHARGES


@<TRIPOS>ATOM
      1 C1         54.0897  152.1795   25.5963 C.3     1  <0>        -0.0422
      2 C2         55.1957  151.1732   22.0156 C.2     1  <0>        -0.0977
      3 C3         50.8666  153.5425   28.9711 C.ar    1  <0>        -0.0615
      4 C4         50.8588  152.3833   28.2048 C.ar    1  <0>        -0.0613
      5 C5         51.3698  154.7241   28.4484 C.ar    1  <0>        -0.0581
      6 C6         51.3384  152.3824   26.9024 C.ar    1  <0>        -0.0530
      7 C7         52.4325  155.8673   26.4189 C.3     1  <0>        -0.0218
      8 C8         52.9434  155.2304   25.1131 C.3     1  <0>        -0.0013
      9 C9         53.7821  152.6912   23.4409 C.3     1  <0>        -0.0130
     10 C10        54.2538  151.3373   22.8919 C.2     1  <0>        -0.0465
     11 C11        51.8501  154.7059   27.1554 C.ar    1  <0>        -0.0387
     12 C12        51.8393  153.5681   26.4007 C.ar    1  <0>         0.0033
     13 C13        52.4032  153.7944   25.0245 C.3     1  <0>         0.0056
     14 N1         53.4660  152.8468   24.6842 N.4     1  <0>         0.2413
     15 H1         53.6856  152.4427   26.5849 H       1  <0>         0.0778
     16 H2         53.9539  151.1023   25.4198 H       1  <0>         0.0778
     17 H3         55.1615  152.4247   25.5614 H       1  <0>         0.0778
     18 H4         55.7154  152.0308   21.6144 H       1  <0>         0.0534
     19 H5         55.4604  150.1790   21.6871 H       1  <0>         0.0534
     20 H6         50.4788  153.5230   29.9790 H       1  <0>         0.0618
     21 H7         50.4733  151.4682   28.6297 H       1  <0>         0.0618
     22 H8         51.3853  155.6305   29.0353 H       1  <0>         0.0620
     23 H9         51.3207  151.4853   26.3015 H       1  <0>         0.0622
     24 H10        53.2477  156.3405   26.9861 H       1  <0>         0.0315
     25 H11        51.6786  156.6442   26.2241 H       1  <0>         0.0315
     26 H12        52.5897  155.8148   24.2509 H       1  <0>         0.0327
     27 H13        54.0433  155.2148   25.1122 H       1  <0>         0.0327
     28 H14        54.6118  153.3898   23.2573 H       1  <0>         0.0861
     29 H15        52.8746  152.9410   22.8717 H       1  <0>         0.0861
     30 H16        53.7620  150.4511   23.2649 H       1  <0>         0.0619
     31 H17        51.6525  153.6484   24.2339 H       1  <0>         0.0904
     32 H18        53.3913  152.4499   25.5991 H       1  <0>         0.2040
@<TRIPOS>BOND
     1     1    14    1
     2     2    10    2
     3     3     4   ar
     4     3     5   ar
     5     4     6   ar
     6     5    11   ar
     7     6    12   ar
     8     7     8    1
     9     7    11    1
    10     8    13    1
    11     9    10    1
    12     9    14    1
    13    11    12   ar
    14    12    13    1
    15    13    14    1
    16     1    15    1
    17     1    16    1
    18     1    17    1
    19     2    18    1
    20     2    19    1
    21     3    20    1
    22     4    21    1
    23     5    22    1
    24     6    23    1
    25     7    24    1
    26     7    25    1
    27     8    26    1
    28     8    27    1
    29     9    28    1
    30     9    29    1
    31    10    30    1
    32    13    31    1
    33    14    32    1
@<TRIPOS>SUBSTRUCTURE
     1 <0>         1 TEMP              0 ****  ****    0 ROOT

