
##########                                Name:        RMA_601_1S3B
##########                    Molecular_Weight:             188.293
##########                DOCK_Rotatable_Bonds:                   3
##########                       Formal_Charge:                   1
##########                     HBond_Acceptors:                   1
##########                        HBond_Donors:                   1
##########                         Heavy_Atoms:                  14
##########                            HA_RMSDs:               0.488
##########                            HA_RMSDh:               0.488
##########                            HA_RMSDm:               0.488
##########                          Grid_Score:         -124.263382
##########                     Grid_vdw_energy:          -35.273144
##########                      Grid_es_energy:          -88.990234
##########           Internal_energy_repulsive:            4.725397

@<TRIPOS>MOLECULE
RMA_601_1S3B
 32 33 1 0 0
SMALL
USER_CHARGES


@<TRIPOS>ATOM
      1 C1         54.1584  152.5185   25.5233 C.3     1  <0>        -0.0422
      2 C2         54.0884  151.2586   21.5991 C.2     1  <0>        -0.0977
      3 C3         51.0463  153.9052   29.0363 C.ar    1  <0>        -0.0615
      4 C4         50.9190  152.7881   28.2196 C.ar    1  <0>        -0.0613
      5 C5         51.6397  155.0616   28.5536 C.ar    1  <0>        -0.0581
      6 C6         51.3670  152.8064   26.9061 C.ar    1  <0>        -0.0530
      7 C7         52.7528  156.2016   26.5495 C.3     1  <0>        -0.0218
      8 C8         53.1759  155.5844   25.2033 C.3     1  <0>        -0.0013
      9 C9         53.6472  152.9680   23.3928 C.3     1  <0>        -0.0130
     10 C10        53.9595  151.5652   22.8526 C.2     1  <0>        -0.0465
     11 C11        52.0871  155.0621   27.2487 C.ar    1  <0>        -0.0387
     12 C12        51.9590  153.9661   26.4446 C.ar    1  <0>         0.0033
     13 C13        52.5093  154.2066   25.0653 C.3     1  <0>         0.0056
     14 N1         53.4764  153.1870   24.6549 N.4     1  <0>         0.2413
     15 H1         53.8785  152.8407   26.5370 H       1  <0>         0.0778
     16 H2         53.9465  151.4452   25.4082 H       1  <0>         0.0778
     17 H3         55.2317  152.6995   25.3645 H       1  <0>         0.0778
     18 H4         53.9747  152.0207   20.8423 H       1  <0>         0.0534
     19 H5         54.3092  150.2411   21.3120 H       1  <0>         0.0534
     20 H6         50.6811  153.8724   30.0522 H       1  <0>         0.0618
     21 H7         50.4640  151.8912   28.6133 H       1  <0>         0.0618
     22 H8         51.7483  155.9348   29.1797 H       1  <0>         0.0620
     23 H9         51.2567  151.9432   26.2665 H       1  <0>         0.0622
     24 H10        53.6192  156.5751   27.1152 H       1  <0>         0.0315
     25 H11        52.0661  157.0494   26.4096 H       1  <0>         0.0315
     26 H12        52.8556  156.2371   24.3778 H       1  <0>         0.0327
     27 H13        54.2698  155.4732   25.1724 H       1  <0>         0.0327
     28 H14        54.5009  153.5954   23.0968 H       1  <0>         0.0861
     29 H15        52.7049  153.2673   22.9107 H       1  <0>         0.0861
     30 H16        54.0816  150.7707   23.5738 H       1  <0>         0.0619
     31 H17        51.7309  154.1636   24.2892 H       1  <0>         0.0904
     32 H18        53.4800  152.8289   25.5886 H       1  <0>         0.2040
@<TRIPOS>BOND
     1     1    14    1
     2     2    10    2
     3     3     4   ar
     4     3     5   ar
     5     4     6   ar
     6     5    11   ar
     7     6    12   ar
     8     7     8    1
     9     7    11    1
    10     8    13    1
    11     9    10    1
    12     9    14    1
    13    11    12   ar
    14    12    13    1
    15    13    14    1
    16     1    15    1
    17     1    16    1
    18     1    17    1
    19     2    18    1
    20     2    19    1
    21     3    20    1
    22     4    21    1
    23     5    22    1
    24     6    23    1
    25     7    24    1
    26     7    25    1
    27     8    26    1
    28     8    27    1
    29     9    28    1
    30     9    29    1
    31    10    30    1
    32    13    31    1
    33    14    32    1
@<TRIPOS>SUBSTRUCTURE
     1 <0>         1 TEMP              0 ****  ****    0 ROOT

