
##########                                Name:        RMA_601_1S3B
##########                    Molecular_Weight:             188.293
##########                DOCK_Rotatable_Bonds:                   3
##########                       Formal_Charge:                   1
##########                     HBond_Acceptors:                   1
##########                        HBond_Donors:                   1
##########                         Heavy_Atoms:                  14
##########                            HA_RMSDs:               0.645
##########                            HA_RMSDh:               0.645
##########                            HA_RMSDm:               0.629
##########                          Grid_Score:         -125.495323
##########                     Grid_vdw_energy:          -37.127846
##########                      Grid_es_energy:          -88.367477
##########           Internal_energy_repulsive:            4.171144

@<TRIPOS>MOLECULE
RMA_601_1S3B
 32 33 1 0 0
SMALL
USER_CHARGES


@<TRIPOS>ATOM
      1 C1         54.4687  152.8592   25.3060 C.3     1  <0>        -0.0422
      2 C2         54.2384  151.2968   21.5766 C.2     1  <0>        -0.0977
      3 C3         51.1332  153.7015   28.8531 C.ar    1  <0>        -0.0615
      4 C4         51.1029  152.6208   27.9800 C.ar    1  <0>        -0.0613
      5 C5         51.6355  154.9247   28.4361 C.ar    1  <0>        -0.0581
      6 C6         51.5586  152.7416   26.6746 C.ar    1  <0>        -0.0530
      7 C7         52.6693  156.2506   26.5052 C.3     1  <0>        -0.0218
      8 C8         53.1516  155.7384   25.1351 C.3     1  <0>        -0.0013
      9 C9         53.7501  153.1499   23.2080 C.3     1  <0>        -0.0130
     10 C10        54.4914  151.9086   22.6918 C.2     1  <0>        -0.0465
     11 C11        52.0919  155.0274   27.1384 C.ar    1  <0>        -0.0387
     12 C12        52.0589  153.9670   26.2790 C.ar    1  <0>         0.0033
     13 C13        52.5992  154.3205   24.9202 C.3     1  <0>         0.0056
     14 N1         53.6486  153.4037   24.4710 N.4     1  <0>         0.2413
     15 H1         54.2282  153.1915   26.3266 H       1  <0>         0.0778
     16 H2         54.3792  151.7644   25.2463 H       1  <0>         0.0778
     17 H3         55.4976  153.1572   25.0563 H       1  <0>         0.0778
     18 H4         53.4516  151.6564   20.9299 H       1  <0>         0.0534
     19 H5         54.8144  150.4278   21.2946 H       1  <0>         0.0534
     20 H6         50.7637  153.5880   29.8616 H       1  <0>         0.0618
     21 H7         50.7184  151.6715   28.3228 H       1  <0>         0.0618
     22 H8         51.6683  155.7708   29.1064 H       1  <0>         0.0620
     23 H9         51.5232  151.9060   25.9913 H       1  <0>         0.0622
     24 H10        53.4982  156.6629   27.0994 H       1  <0>         0.0315
     25 H11        51.9177  157.0467   26.3995 H       1  <0>         0.0315
     26 H12        52.7864  156.4045   24.3394 H       1  <0>         0.0327
     27 H13        54.2511  155.7168   25.1120 H       1  <0>         0.0327
     28 H14        54.2794  154.0116   22.7750 H       1  <0>         0.0861
     29 H15        52.7173  153.0506   22.8426 H       1  <0>         0.0861
     30 H16        55.2869  151.5135   23.3061 H       1  <0>         0.0619
     31 H17        51.8331  154.2549   24.1335 H       1  <0>         0.0904
     32 H18        53.7646  153.0907   25.4137 H       1  <0>         0.2040
@<TRIPOS>BOND
     1     1    14    1
     2     2    10    2
     3     3     4   ar
     4     3     5   ar
     5     4     6   ar
     6     5    11   ar
     7     6    12   ar
     8     7     8    1
     9     7    11    1
    10     8    13    1
    11     9    10    1
    12     9    14    1
    13    11    12   ar
    14    12    13    1
    15    13    14    1
    16     1    15    1
    17     1    16    1
    18     1    17    1
    19     2    18    1
    20     2    19    1
    21     3    20    1
    22     4    21    1
    23     5    22    1
    24     6    23    1
    25     7    24    1
    26     7    25    1
    27     8    26    1
    28     8    27    1
    29     9    28    1
    30     9    29    1
    31    10    30    1
    32    13    31    1
    33    14    32    1
@<TRIPOS>SUBSTRUCTURE
     1 <0>         1 TEMP              0 ****  ****    0 ROOT

