
##########                                Name:        RMA_601_1S3B
##########                    Molecular_Weight:             188.293
##########                DOCK_Rotatable_Bonds:                   3
##########                       Formal_Charge:                   1
##########                     HBond_Acceptors:                   1
##########                        HBond_Donors:                   1
##########                         Heavy_Atoms:                  14
##########                            HA_RMSDs:               0.888
##########                            HA_RMSDh:               0.888
##########                            HA_RMSDm:               0.846
##########                          Grid_Score:         -124.337173
##########                     Grid_vdw_energy:          -35.346340
##########                      Grid_es_energy:          -88.990837
##########           Internal_energy_repulsive:            4.086340

@<TRIPOS>MOLECULE
RMA_601_1S3B
 32 33 1 0 0
SMALL
USER_CHARGES


@<TRIPOS>ATOM
      1 C1         54.4771  152.6186   25.2553 C.3     1  <0>        -0.0422
      2 C2         54.2106  150.2492   21.9448 C.2     1  <0>        -0.0977
      3 C3         51.0579  153.5722   28.8298 C.ar    1  <0>        -0.0615
      4 C4         51.0754  152.3814   28.1136 C.ar    1  <0>        -0.0613
      5 C5         51.4730  154.7536   28.2344 C.ar    1  <0>        -0.0581
      6 C6         51.4927  152.3476   26.7904 C.ar    1  <0>        -0.0530
      7 C7         52.3774  155.8588   26.1094 C.3     1  <0>        -0.0218
      8 C8         52.8594  155.1918   24.8076 C.3     1  <0>        -0.0013
      9 C9         53.4512  152.2241   23.3074 C.3     1  <0>        -0.0130
     10 C10        54.2427  150.9351   23.0450 C.2     1  <0>        -0.0465
     11 C11        51.8923  154.7029   26.9212 C.ar    1  <0>        -0.0387
     12 C12        51.9062  153.5339   26.2159 C.ar    1  <0>         0.0033
     13 C13        52.3922  153.7277   24.8054 C.3     1  <0>         0.0056
     14 N1         53.4864  152.8211   24.4530 N.4     1  <0>         0.2413
     15 H1         54.3327  153.2077   26.1730 H       1  <0>         0.0778
     16 H2         54.5296  151.5499   25.5103 H       1  <0>         0.0778
     17 H3         55.4134  152.9255   24.7663 H       1  <0>         0.0778
     18 H4         53.5908  150.5757   21.1227 H       1  <0>         0.0534
     19 H5         54.8036  149.3514   21.8506 H       1  <0>         0.0534
     20 H6         50.7193  153.5774   29.8554 H       1  <0>         0.0618
     21 H7         50.7591  151.4676   28.5945 H       1  <0>         0.0618
     22 H8         51.4681  155.6846   28.7817 H       1  <0>         0.0620
     23 H9         51.4942  151.4251   26.2289 H       1  <0>         0.0622
     24 H10        53.1922  156.3973   26.6157 H       1  <0>         0.0315
     25 H11        51.5752  156.5871   25.9197 H       1  <0>         0.0315
     26 H12        52.4352  155.7190   23.9403 H       1  <0>         0.0327
     27 H13        53.9573  155.2319   24.7533 H       1  <0>         0.0327
     28 H14        53.8308  152.9572   22.5803 H       1  <0>         0.0861
     29 H15        52.3957  151.9614   23.1434 H       1  <0>         0.0861
     30 H16        54.8766  150.5706   23.8397 H       1  <0>         0.0619
     31 H17        51.6139  153.5092   24.0594 H       1  <0>         0.0904
     32 H18        53.7690  152.8054   25.4121 H       1  <0>         0.2040
@<TRIPOS>BOND
     1     1    14    1
     2     2    10    2
     3     3     4   ar
     4     3     5   ar
     5     4     6   ar
     6     5    11   ar
     7     6    12   ar
     8     7     8    1
     9     7    11    1
    10     8    13    1
    11     9    10    1
    12     9    14    1
    13    11    12   ar
    14    12    13    1
    15    13    14    1
    16     1    15    1
    17     1    16    1
    18     1    17    1
    19     2    18    1
    20     2    19    1
    21     3    20    1
    22     4    21    1
    23     5    22    1
    24     6    23    1
    25     7    24    1
    26     7    25    1
    27     8    26    1
    28     8    27    1
    29     9    28    1
    30     9    29    1
    31    10    30    1
    32    13    31    1
    33    14    32    1
@<TRIPOS>SUBSTRUCTURE
     1 <0>         1 TEMP              0 ****  ****    0 ROOT

