
##########                                Name:        E4D_600_1SJ0
##########                    Molecular_Weight:             464.605
##########                DOCK_Rotatable_Bonds:                   8
##########                       Formal_Charge:              1.0003
##########                     HBond_Acceptors:                   6
##########                        HBond_Donors:                   3
##########                         Heavy_Atoms:                  33
##########                            HA_RMSDs:               0.244
##########                            HA_RMSDh:               0.244
##########                            HA_RMSDm:               0.244
##########                          Grid_Score:         -107.070023
##########                     Grid_vdw_energy:          -60.571693
##########                      Grid_es_energy:          -46.498325
##########           Internal_energy_repulsive:           13.689697

@<TRIPOS>MOLECULE
E4D_600_1SJ0
 63 67 1 0 0
SMALL
USER_CHARGES


@<TRIPOS>ATOM
      1 C1         32.4915    1.5937   27.4556 C.ar    1  <0>        -0.0550
      2 C2         33.3836    0.3945   29.3558 C.ar    1  <0>        -0.0550
      3 C3         32.4661   -2.6789   26.5663 C.ar    1  <0>        -0.0536
      4 C4         30.9788   -0.9794   25.7352 C.ar    1  <0>        -0.0536
      5 C5         33.7335    2.2160   27.2706 C.ar    1  <0>        -0.0316
      6 C6         34.6379    0.9909   29.1702 C.ar    1  <0>        -0.0316
      7 C7         32.8811   -2.9855   25.2685 C.ar    1  <0>        -0.0313
      8 C8         31.3760   -1.3018   24.4091 C.ar    1  <0>        -0.0313
      9 C9         26.6168   -2.4636   27.1440 C.ar    1  <0>        -0.0294
     10 C10        27.8327   -2.7986   27.7233 C.ar    1  <0>        -0.0281
     11 C11        27.1372   -0.1274   27.5261 C.ar    1  <0>        -0.0160
     12 C12        31.5254   -2.7586   17.6925 C.3     1  <0>        -0.0434
     13 C13        30.7211   -3.1234   18.9580 C.3     1  <0>        -0.0123
     14 C14        32.7553   -3.7024   17.6392 C.3     1  <0>        -0.0123
     15 C15        31.6058   -3.1330   20.2243 C.3     1  <0>        -0.0318
     16 C16        33.6207   -3.5671   18.9225 C.3     1  <0>        -0.0318
     17 C17        33.5190   -4.3186   21.3479 C.3     1  <0>        -0.0074
     18 C18        33.8619   -3.3210   22.4773 C.3     1  <0>         0.0940
     19 C19        31.5090   -1.6881   26.8161 C.ar    1  <0>        -0.0169
     20 C20        32.3130    0.6750   28.4921 C.ar    1  <0>        -0.0311
     21 C21        34.7994    1.9234   28.1373 C.ar    1  <0>         0.0726
     22 C22        32.3589   -2.2483   24.1787 C.ar    1  <0>         0.0764
     23 C23        26.2152   -1.1182   27.1504 C.ar    1  <0>         0.0738
     24 C24        28.7459   -1.8231   28.0913 C.ar    1  <0>         0.0906
     25 C25        28.4153   -0.4458   27.9559 C.ar    1  <0>         0.0410
     26 C26        31.1562   -1.4984   28.2891 C.3     1  <0>         0.1063
     27 C27        31.0286   -0.0607   28.7952 C.3     1  <0>         0.0656
     28 N1         32.8237   -3.9164   20.1024 N.4     1  <0>         0.2369
     29 O1         36.0048    2.4914   27.9442 O.3     1  <0>        -0.3598
     30 O2         24.9904   -0.8212   26.7017 O.3     1  <0>        -0.3598
     31 O3         29.9434   -2.2153   28.5587 O.3     1  <0>        -0.3343
     32 O4         32.7679   -2.4914   22.9060 O.3     1  <0>        -0.3394
     33 S1         29.4512    0.5980   28.2724 S.3     1  <0>        -0.1115
     34 H1         31.6696    1.8254   26.7943 H       1  <0>         0.0621
     35 H2         33.2382   -0.2922   30.1767 H       1  <0>         0.0621
     36 H3         32.8939   -3.2195   27.3977 H       1  <0>         0.0622
     37 H4         30.2666   -0.1861   25.9073 H       1  <0>         0.0622
     38 H5         33.8709    2.9196   26.4628 H       1  <0>         0.0643
     39 H6         35.4672    0.7358   29.8134 H       1  <0>         0.0643
     40 H7         33.5945   -3.7783   25.0978 H       1  <0>         0.0643
     41 H8         30.9065   -0.8036   23.5739 H       1  <0>         0.0643
     42 H9         25.9919   -3.2228   26.6971 H       1  <0>         0.0644
     43 H10        28.0716   -3.8385   27.8905 H       1  <0>         0.0644
     44 H11        26.8419    0.9104   27.4787 H       1  <0>         0.0655
     45 H12        30.9037   -2.8939   16.7953 H       1  <0>         0.0269
     46 H13        31.8533   -1.7096   17.7402 H       1  <0>         0.0269
     47 H14        29.9223   -2.3793   19.0932 H       1  <0>         0.0317
     48 H15        30.2897   -4.1262   18.8231 H       1  <0>         0.0317
     49 H16        32.4044   -4.7414   17.5535 H       1  <0>         0.0317
     50 H17        33.3694   -3.4391   16.7654 H       1  <0>         0.0317
     51 H18        31.8940   -2.0940   20.4417 H       1  <0>         0.0814
     52 H19        31.0122   -3.5589   21.0466 H       1  <0>         0.0814
     53 H20        34.4838   -4.2456   18.8525 H       1  <0>         0.0814
     54 H21        33.9732   -2.5292   19.0158 H       1  <0>         0.0814
     55 H22        34.4863   -4.7268   21.0197 H       1  <0>         0.0837
     56 H23        32.8644   -5.0693   21.8146 H       1  <0>         0.0837
     57 H24        34.2001   -3.9037   23.3468 H       1  <0>         0.0619
     58 H25        34.6588   -2.6589   22.1080 H       1  <0>         0.0619
     59 H26        32.0221   -1.8904   28.8427 H       1  <0>         0.0666
     60 H27        30.9608    0.0514   29.8874 H       1  <0>         0.0493
     61 H28        32.5052   -4.8390   19.8846 H       1  <0>         0.2034
     62 H29        36.5891    2.2433   28.6510 H       1  <0>         0.2173
     63 H30        24.8392    0.1128   26.7874 H       1  <0>         0.2173
@<TRIPOS>BOND
     1     1     5   ar
     2     1    20   ar
     3     2     6   ar
     4     2    20   ar
     5     3     7   ar
     6     3    19   ar
     7     4     8   ar
     8     4    19   ar
     9     5    21   ar
    10     6    21   ar
    11     7    22   ar
    12     8    22   ar
    13     9    10   ar
    14     9    23   ar
    15    10    24   ar
    16    11    23   ar
    17    11    25   ar
    18    12    13    1
    19    12    14    1
    20    13    15    1
    21    14    16    1
    22    15    28    1
    23    16    28    1
    24    17    18    1
    25    17    28    1
    26    18    32    1
    27    19    26    1
    28    20    27    1
    29    21    29    1
    30    22    32    1
    31    23    30    1
    32    24    25   ar
    33    24    31    1
    34    25    33    1
    35    26    27    1
    36    26    31    1
    37    27    33    1
    38     1    34    1
    39     2    35    1
    40     3    36    1
    41     4    37    1
    42     5    38    1
    43     6    39    1
    44     7    40    1
    45     8    41    1
    46     9    42    1
    47    10    43    1
    48    11    44    1
    49    12    45    1
    50    12    46    1
    51    13    47    1
    52    13    48    1
    53    14    49    1
    54    14    50    1
    55    15    51    1
    56    15    52    1
    57    16    53    1
    58    16    54    1
    59    17    55    1
    60    17    56    1
    61    18    57    1
    62    18    58    1
    63    26    59    1
    64    27    60    1
    65    28    61    1
    66    29    62    1
    67    30    63    1
@<TRIPOS>SUBSTRUCTURE
     1 <0>         1 TEMP              0 ****  ****    0 ROOT

