
##########                                Name:        E4D_600_1SJ0
##########                    Molecular_Weight:             464.605
##########                DOCK_Rotatable_Bonds:                   8
##########                       Formal_Charge:              1.0003
##########                     HBond_Acceptors:                   6
##########                        HBond_Donors:                   3
##########                         Heavy_Atoms:                  33
##########                            HA_RMSDs:               0.344
##########                            HA_RMSDh:               0.344
##########                            HA_RMSDm:               0.344
##########                          Grid_Score:         -108.828613
##########                     Grid_vdw_energy:          -62.379715
##########                      Grid_es_energy:          -46.448895
##########           Internal_energy_repulsive:           14.434477

@<TRIPOS>MOLECULE
E4D_600_1SJ0
 63 67 1 0 0
SMALL
USER_CHARGES


@<TRIPOS>ATOM
      1 C1         32.6354    1.3754   27.4063 C.ar    1  <0>        -0.0550
      2 C2         33.3313    0.5487   29.5690 C.ar    1  <0>        -0.0550
      3 C3         32.4307   -2.7639   26.5831 C.ar    1  <0>        -0.0536
      4 C4         31.1124   -0.9183   25.7790 C.ar    1  <0>        -0.0536
      5 C5         33.8751    2.0113   27.2552 C.ar    1  <0>        -0.0316
      6 C6         34.5839    1.1595   29.4230 C.ar    1  <0>        -0.0316
      7 C7         32.8454   -3.0660   25.2840 C.ar    1  <0>        -0.0313
      8 C8         31.5085   -1.2336   24.4509 C.ar    1  <0>        -0.0313
      9 C9         26.6562   -2.4457   27.1158 C.ar    1  <0>        -0.0294
     10 C10        27.8637   -2.7964   27.7034 C.ar    1  <0>        -0.0281
     11 C11        27.1895   -0.1179   27.5307 C.ar    1  <0>        -0.0160
     12 C12        31.2531   -2.2628   17.9796 C.3     1  <0>        -0.0434
     13 C13        30.5577   -3.0515   19.1090 C.3     1  <0>        -0.0123
     14 C14        32.6412   -2.9153   17.7478 C.3     1  <0>        -0.0123
     15 C15        31.4505   -3.1761   20.3635 C.3     1  <0>        -0.0318
     16 C16        33.4873   -2.9090   19.0509 C.3     1  <0>        -0.0318
     17 C17        33.5770   -4.1936   21.2417 C.3     1  <0>        -0.0074
     18 C18        33.8878   -3.3613   22.5062 C.3     1  <0>         0.0940
     19 C19        31.5569   -1.7022   26.8464 C.ar    1  <0>        -0.0169
     20 C20        32.3608    0.6351   28.5582 C.ar    1  <0>        -0.0311
     21 C21        34.8408    1.9132   28.2704 C.ar    1  <0>         0.0726
     22 C22        32.4114   -2.2540   24.2087 C.ar    1  <0>         0.0764
     23 C23        26.2643   -1.0975   27.1340 C.ar    1  <0>         0.0738
     24 C24        28.7801   -1.8319   28.0921 C.ar    1  <0>         0.0906
     25 C25        28.4608   -0.4507   27.9696 C.ar    1  <0>         0.0410
     26 C26        31.1905   -1.5272   28.3179 C.3     1  <0>         0.1063
     27 C27        31.0682   -0.0946   28.8397 C.3     1  <0>         0.0656
     28 N1         32.7945   -3.6623   20.1007 N.4     1  <0>         0.2369
     29 O1         36.0464    2.4928   28.1166 O.3     1  <0>        -0.3598
     30 O2         25.0463   -0.7863   26.6766 O.3     1  <0>        -0.3598
     31 O3         29.9699   -2.2384   28.5668 O.3     1  <0>        -0.3343
     32 O4         32.8250   -2.4931   22.9367 O.3     1  <0>        -0.3394
     33 S1         29.5009    0.5817   28.3088 S.3     1  <0>        -0.1115
     34 H1         31.8898    1.4581   26.6293 H       1  <0>         0.0621
     35 H2         33.1088    0.0026   30.4739 H       1  <0>         0.0621
     36 H3         32.7930   -3.3642   27.4046 H       1  <0>         0.0622
     37 H4         30.4673   -0.0720   25.9630 H       1  <0>         0.0622
     38 H5         34.0876    2.5759   26.3594 H       1  <0>         0.0643
     39 H6         35.3394    1.0510   30.1871 H       1  <0>         0.0643
     40 H7         33.4917   -3.9118   25.1014 H       1  <0>         0.0643
     41 H8         31.1012   -0.6718   23.6234 H       1  <0>         0.0643
     42 H9         26.0304   -3.1949   26.6538 H       1  <0>         0.0644
     43 H10        28.0934   -3.8399   27.8607 H       1  <0>         0.0644
     44 H11        26.9022    0.9225   27.4925 H       1  <0>         0.0655
     45 H12        30.6531   -2.3093   17.0588 H       1  <0>         0.0269
     46 H13        31.3728   -1.2087   18.2704 H       1  <0>         0.0269
     47 H14        29.6327   -2.5252   19.3871 H       1  <0>         0.0317
     48 H15        30.3261   -4.0619   18.7409 H       1  <0>         0.0317
     49 H16        32.4964   -3.9558   17.4215 H       1  <0>         0.0317
     50 H17        33.1768   -2.3486   16.9720 H       1  <0>         0.0317
     51 H18        31.5362   -2.1774   20.8164 H       1  <0>         0.0814
     52 H19        30.9656   -3.8827   21.0532 H       1  <0>         0.0814
     53 H20        34.4639   -3.3751   18.8528 H       1  <0>         0.0814
     54 H21        33.6340   -1.8711   19.3843 H       1  <0>         0.0814
     55 H22        34.5586   -4.4570   20.8209 H       1  <0>         0.0837
     56 H23        33.0087   -5.0640   21.6014 H       1  <0>         0.0837
     57 H24        34.0979   -4.0642   23.3258 H       1  <0>         0.0619
     58 H25        34.7639   -2.7336   22.2863 H       1  <0>         0.0619
     59 H26        32.0479   -1.9320   28.8756 H       1  <0>         0.0666
     60 H27        30.9901    0.0051   29.9323 H       1  <0>         0.0493
     61 H28        32.6566   -4.5555   19.6728 H       1  <0>         0.2034
     62 H29        36.5913    2.2956   28.8694 H       1  <0>         0.2173
     63 H30        24.9814    0.1546   26.5622 H       1  <0>         0.2173
@<TRIPOS>BOND
     1     1     5   ar
     2     1    20   ar
     3     2     6   ar
     4     2    20   ar
     5     3     7   ar
     6     3    19   ar
     7     4     8   ar
     8     4    19   ar
     9     5    21   ar
    10     6    21   ar
    11     7    22   ar
    12     8    22   ar
    13     9    10   ar
    14     9    23   ar
    15    10    24   ar
    16    11    23   ar
    17    11    25   ar
    18    12    13    1
    19    12    14    1
    20    13    15    1
    21    14    16    1
    22    15    28    1
    23    16    28    1
    24    17    18    1
    25    17    28    1
    26    18    32    1
    27    19    26    1
    28    20    27    1
    29    21    29    1
    30    22    32    1
    31    23    30    1
    32    24    25   ar
    33    24    31    1
    34    25    33    1
    35    26    27    1
    36    26    31    1
    37    27    33    1
    38     1    34    1
    39     2    35    1
    40     3    36    1
    41     4    37    1
    42     5    38    1
    43     6    39    1
    44     7    40    1
    45     8    41    1
    46     9    42    1
    47    10    43    1
    48    11    44    1
    49    12    45    1
    50    12    46    1
    51    13    47    1
    52    13    48    1
    53    14    49    1
    54    14    50    1
    55    15    51    1
    56    15    52    1
    57    16    53    1
    58    16    54    1
    59    17    55    1
    60    17    56    1
    61    18    57    1
    62    18    58    1
    63    26    59    1
    64    27    60    1
    65    28    61    1
    66    29    62    1
    67    30    63    1
@<TRIPOS>SUBSTRUCTURE
     1 <0>         1 TEMP              0 ****  ****    0 ROOT

