
##########                                Name:        E4D_600_1SJ0
##########                    Molecular_Weight:             464.605
##########                DOCK_Rotatable_Bonds:                   8
##########                       Formal_Charge:              1.0003
##########                     HBond_Acceptors:                   6
##########                        HBond_Donors:                   3
##########                         Heavy_Atoms:                  33
##########                            HA_RMSDs:               0.342
##########                            HA_RMSDh:               0.342
##########                            HA_RMSDm:               0.342
##########                          Grid_Score:         -108.692276
##########                     Grid_vdw_energy:          -59.344566
##########                      Grid_es_energy:          -49.347706
##########           Internal_energy_repulsive:           14.120947

@<TRIPOS>MOLECULE
E4D_600_1SJ0
 63 67 1 0 0
SMALL
USER_CHARGES


@<TRIPOS>ATOM
      1 C1         32.5114    1.6068   27.4031 C.ar    1  <0>        -0.0550
      2 C2         33.2992    0.4658   29.3837 C.ar    1  <0>        -0.0550
      3 C3         32.4481   -2.6772   26.6177 C.ar    1  <0>        -0.0536
      4 C4         31.0314   -0.9666   25.6915 C.ar    1  <0>        -0.0536
      5 C5         33.7683    2.2090   27.2553 C.ar    1  <0>        -0.0316
      6 C6         34.5681    1.0420   29.2367 C.ar    1  <0>        -0.0316
      7 C7         32.9090   -3.0197   25.3445 C.ar    1  <0>        -0.0313
      8 C8         31.4753   -1.3251   24.3897 C.ar    1  <0>        -0.0313
      9 C9         26.5903   -2.3631   26.9563 C.ar    1  <0>        -0.0294
     10 C10        27.7771   -2.7014   27.5912 C.ar    1  <0>        -0.0281
     11 C11        27.1291   -0.0261   27.3067 C.ar    1  <0>        -0.0160
     12 C12        31.8037   -3.1264   17.6691 C.3     1  <0>        -0.0434
     13 C13        30.9339   -3.1335   18.9438 C.3     1  <0>        -0.0123
     14 C14        32.7894   -4.3194   17.7762 C.3     1  <0>        -0.0123
     15 C15        31.7897   -3.1743   20.2292 C.3     1  <0>        -0.0318
     16 C16        33.6590   -4.2136   19.0594 C.3     1  <0>        -0.0318
     17 C17        33.3829   -4.5990   21.5560 C.3     1  <0>        -0.0074
     18 C18        33.8768   -3.5606   22.5885 C.3     1  <0>         0.0940
     19 C19        31.5024   -1.6624   26.8076 C.ar    1  <0>        -0.0169
     20 C20        32.2735    0.7271   28.4614 C.ar    1  <0>        -0.0311
     21 C21        34.7889    1.9358   28.1808 C.ar    1  <0>         0.0726
     22 C22        32.4469   -2.2957   24.2193 C.ar    1  <0>         0.0764
     23 C23        26.2084   -1.0125   26.9166 C.ar    1  <0>         0.0738
     24 C24        28.6891   -1.7304   27.9737 C.ar    1  <0>         0.0906
     25 C25        28.3843   -0.3521   27.7945 C.ar    1  <0>         0.0410
     26 C26        31.0941   -1.4343   28.2606 C.3     1  <0>         0.1063
     27 C27        30.9675    0.0162   28.7291 C.3     1  <0>         0.0656
     28 N1         32.8000   -4.2187   20.2475 N.4     1  <0>         0.2369
     29 O1         36.0089    2.4838   28.0251 O.3     1  <0>        -0.3598
     30 O2         25.0069   -0.7090   26.4127 O.3     1  <0>        -0.3598
     31 O3         29.8612   -2.1282   28.4973 O.3     1  <0>        -0.3343
     32 O4         32.9021   -2.5741   22.9697 O.3     1  <0>        -0.3394
     33 S1         29.4219    0.6844   28.1289 S.3     1  <0>        -0.1115
     34 H1         31.7242    1.8237   26.6963 H       1  <0>         0.0621
     35 H2         33.1073   -0.1899   30.2202 H       1  <0>         0.0621
     36 H3         32.8304   -3.2084   27.4768 H       1  <0>         0.0622
     37 H4         30.3294   -0.1557   25.8179 H       1  <0>         0.0622
     38 H5         33.9518    2.8821   26.4310 H       1  <0>         0.0643
     39 H6         35.3632    0.8009   29.9266 H       1  <0>         0.0643
     40 H7         33.6121   -3.8300   25.2195 H       1  <0>         0.0643
     41 H8         31.0505   -0.8356   23.5258 H       1  <0>         0.0643
     42 H9         25.9726   -3.1236   26.5017 H       1  <0>         0.0644
     43 H10        27.9940   -3.7404   27.7909 H       1  <0>         0.0644
     44 H11        26.8512    1.0143   27.2244 H       1  <0>         0.0655
     45 H12        31.1703   -3.2360   16.7765 H       1  <0>         0.0269
     46 H13        32.3595   -2.1801   17.5939 H       1  <0>         0.0269
     47 H14        30.3230   -2.2190   18.9574 H       1  <0>         0.0317
     48 H15        30.2880   -4.0237   18.9234 H       1  <0>         0.0317
     49 H16        32.2136   -5.2560   17.8116 H       1  <0>         0.0317
     50 H17        33.4498   -4.3166   16.8965 H       1  <0>         0.0317
     51 H18        32.3040   -2.2065   20.3222 H       1  <0>         0.0814
     52 H19        31.1128   -3.3456   21.0792 H       1  <0>         0.0814
     53 H20        34.3471   -5.0707   19.1042 H       1  <0>         0.0814
     54 H21        34.2360   -3.2775   19.0316 H       1  <0>         0.0814
     55 H22        34.2666   -5.2072   21.3126 H       1  <0>         0.0837
     56 H23        32.5923   -5.1647   22.0708 H       1  <0>         0.0837
     57 H24        34.1725   -4.1066   23.4965 H       1  <0>         0.0619
     58 H25        34.7334   -3.0309   22.1463 H       1  <0>         0.0619
     59 H26        31.9315   -1.8253   28.8571 H       1  <0>         0.0666
     60 H27        30.8580    0.1542   29.8148 H       1  <0>         0.0493
     61 H28        32.2825   -5.0673   20.1384 H       1  <0>         0.2034
     62 H29        36.5476    2.2782   28.7800 H       1  <0>         0.2173
     63 H30        24.8532    0.2244   26.4995 H       1  <0>         0.2173
@<TRIPOS>BOND
     1     1     5   ar
     2     1    20   ar
     3     2     6   ar
     4     2    20   ar
     5     3     7   ar
     6     3    19   ar
     7     4     8   ar
     8     4    19   ar
     9     5    21   ar
    10     6    21   ar
    11     7    22   ar
    12     8    22   ar
    13     9    10   ar
    14     9    23   ar
    15    10    24   ar
    16    11    23   ar
    17    11    25   ar
    18    12    13    1
    19    12    14    1
    20    13    15    1
    21    14    16    1
    22    15    28    1
    23    16    28    1
    24    17    18    1
    25    17    28    1
    26    18    32    1
    27    19    26    1
    28    20    27    1
    29    21    29    1
    30    22    32    1
    31    23    30    1
    32    24    25   ar
    33    24    31    1
    34    25    33    1
    35    26    27    1
    36    26    31    1
    37    27    33    1
    38     1    34    1
    39     2    35    1
    40     3    36    1
    41     4    37    1
    42     5    38    1
    43     6    39    1
    44     7    40    1
    45     8    41    1
    46     9    42    1
    47    10    43    1
    48    11    44    1
    49    12    45    1
    50    12    46    1
    51    13    47    1
    52    13    48    1
    53    14    49    1
    54    14    50    1
    55    15    51    1
    56    15    52    1
    57    16    53    1
    58    16    54    1
    59    17    55    1
    60    17    56    1
    61    18    57    1
    62    18    58    1
    63    26    59    1
    64    27    60    1
    65    28    61    1
    66    29    62    1
    67    30    63    1
@<TRIPOS>SUBSTRUCTURE
     1 <0>         1 TEMP              0 ****  ****    0 ROOT

