
##########                                Name:        E4D_600_1SJ0
##########                    Molecular_Weight:             464.605
##########                DOCK_Rotatable_Bonds:                   8
##########                       Formal_Charge:              1.0003
##########                     HBond_Acceptors:                   6
##########                        HBond_Donors:                   3
##########                         Heavy_Atoms:                  33
##########                            HA_RMSDs:               0.354
##########                            HA_RMSDh:               0.354
##########                            HA_RMSDm:               0.354
##########                          Grid_Score:         -110.845245
##########                     Grid_vdw_energy:          -64.196129
##########                      Grid_es_energy:          -46.649113
##########           Internal_energy_repulsive:           14.871598

@<TRIPOS>MOLECULE
E4D_600_1SJ0
 63 67 1 0 0
SMALL
USER_CHARGES


@<TRIPOS>ATOM
      1 C1         32.7186    1.3764   27.4598 C.ar    1  <0>        -0.0550
      2 C2         33.3810    0.6310   29.6623 C.ar    1  <0>        -0.0550
      3 C3         32.4316   -2.6805   26.6272 C.ar    1  <0>        -0.0536
      4 C4         31.0953   -0.8338   25.8557 C.ar    1  <0>        -0.0536
      5 C5         33.9638    1.9998   27.3010 C.ar    1  <0>        -0.0316
      6 C6         34.6388    1.2295   29.5097 C.ar    1  <0>        -0.0316
      7 C7         32.8260   -2.9735   25.3198 C.ar    1  <0>        -0.0313
      8 C8         31.4708   -1.1401   24.5196 C.ar    1  <0>        -0.0313
      9 C9         26.6513   -2.2903   27.2417 C.ar    1  <0>        -0.0294
     10 C10        27.8610   -2.6666   27.8085 C.ar    1  <0>        -0.0281
     11 C11        27.2280    0.0240   27.6733 C.ar    1  <0>        -0.0160
     12 C12        31.4895   -2.6867   17.7154 C.3     1  <0>        -0.0434
     13 C13        30.6105   -3.1865   18.8812 C.3     1  <0>        -0.0123
     14 C14        32.7899   -3.5323   17.7223 C.3     1  <0>        -0.0123
     15 C15        31.3811   -3.2085   20.2199 C.3     1  <0>        -0.0318
     16 C16        33.5284   -3.4125   19.0840 C.3     1  <0>        -0.0318
     17 C17        33.2779   -4.3165   21.4457 C.3     1  <0>        -0.0074
     18 C18        33.7642   -3.3146   22.5172 C.3     1  <0>         0.0940
     19 C19        31.5592   -1.6228   26.9111 C.ar    1  <0>        -0.0169
     20 C20        32.4247    0.6828   28.6358 C.ar    1  <0>        -0.0311
     21 C21        34.9152    1.9365   28.3323 C.ar    1  <0>         0.0726
     22 C22        32.3724   -2.1564   24.2566 C.ar    1  <0>         0.0764
     23 C23        26.2816   -0.9363   27.2795 C.ar    1  <0>         0.0738
     24 C24        28.7982   -1.7212   28.1943 C.ar    1  <0>         0.0906
     25 C25        28.4998   -0.3338   28.0908 C.ar    1  <0>         0.0410
     26 C26        31.2162   -1.4577   28.3894 C.3     1  <0>         0.1063
     27 C27        31.1244   -0.0290   28.9277 C.3     1  <0>         0.0656
     28 N1         32.6628   -3.8912   20.1662 N.4     1  <0>         0.2369
     29 O1         36.1259    2.5036   28.1725 O.3     1  <0>        -0.3598
     30 O2         25.0626   -0.6006   26.8425 O.3     1  <0>        -0.3598
     31 O3         29.9878   -2.1518   28.6479 O.3     1  <0>        -0.3343
     32 O4         32.7660   -2.3867   22.9767 O.3     1  <0>        -0.3394
     33 S1         29.5611    0.6781   28.4261 S.3     1  <0>        -0.1115
     34 H1         31.9840    1.4325   26.6701 H       1  <0>         0.0621
     35 H2         33.1435    0.1216   30.5845 H       1  <0>         0.0621
     36 H3         32.8087   -3.2846   27.4391 H       1  <0>         0.0622
     37 H4         30.4509    0.0095   26.0553 H       1  <0>         0.0622
     38 H5         34.1914    2.5280   26.3869 H       1  <0>         0.0643
     39 H6         35.3834    1.1470   30.2876 H       1  <0>         0.0643
     40 H7         33.4716   -3.8164   25.1217 H       1  <0>         0.0643
     41 H8         31.0485   -0.5745   23.7021 H       1  <0>         0.0643
     42 H9         26.0071   -3.0244   26.7806 H       1  <0>         0.0644
     43 H10        28.0759   -3.7153   27.9516 H       1  <0>         0.0644
     44 H11        26.9571    1.0693   27.6500 H       1  <0>         0.0655
     45 H12        30.9598   -2.8122   16.7596 H       1  <0>         0.0269
     46 H13        31.7285   -1.6213   17.8496 H       1  <0>         0.0269
     47 H14        29.7470   -2.5129   18.9840 H       1  <0>         0.0317
     48 H15        30.2727   -4.2082   18.6535 H       1  <0>         0.0317
     49 H16        32.5306   -4.5871   17.5487 H       1  <0>         0.0317
     50 H17        33.4543   -3.1716   16.9232 H       1  <0>         0.0317
     51 H18        31.5668   -2.1663   20.5187 H       1  <0>         0.0814
     52 H19        30.7543   -3.7265   20.9607 H       1  <0>         0.0814
     53 H20        34.4450   -4.0201   19.0555 H       1  <0>         0.0814
     54 H21        33.7887   -2.3592   19.2652 H       1  <0>         0.0814
     55 H22        34.1719   -4.8901   21.1598 H       1  <0>         0.0837
     56 H23        32.5108   -4.9253   21.9467 H       1  <0>         0.0837
     57 H24        34.1066   -3.8950   23.3867 H       1  <0>         0.0619
     58 H25        34.5874   -2.7308   22.0797 H       1  <0>         0.0619
     59 H26        32.0746   -1.8821   28.9306 H       1  <0>         0.0666
     60 H27        31.0631    0.0603   30.0224 H       1  <0>         0.0493
     61 H28        32.4379   -4.8196   19.8706 H       1  <0>         0.2034
     62 H29        36.7320    2.1417   28.8083 H       1  <0>         0.2173
     63 H30        24.9070    0.3208   27.0135 H       1  <0>         0.2173
@<TRIPOS>BOND
     1     1     5   ar
     2     1    20   ar
     3     2     6   ar
     4     2    20   ar
     5     3     7   ar
     6     3    19   ar
     7     4     8   ar
     8     4    19   ar
     9     5    21   ar
    10     6    21   ar
    11     7    22   ar
    12     8    22   ar
    13     9    10   ar
    14     9    23   ar
    15    10    24   ar
    16    11    23   ar
    17    11    25   ar
    18    12    13    1
    19    12    14    1
    20    13    15    1
    21    14    16    1
    22    15    28    1
    23    16    28    1
    24    17    18    1
    25    17    28    1
    26    18    32    1
    27    19    26    1
    28    20    27    1
    29    21    29    1
    30    22    32    1
    31    23    30    1
    32    24    25   ar
    33    24    31    1
    34    25    33    1
    35    26    27    1
    36    26    31    1
    37    27    33    1
    38     1    34    1
    39     2    35    1
    40     3    36    1
    41     4    37    1
    42     5    38    1
    43     6    39    1
    44     7    40    1
    45     8    41    1
    46     9    42    1
    47    10    43    1
    48    11    44    1
    49    12    45    1
    50    12    46    1
    51    13    47    1
    52    13    48    1
    53    14    49    1
    54    14    50    1
    55    15    51    1
    56    15    52    1
    57    16    53    1
    58    16    54    1
    59    17    55    1
    60    17    56    1
    61    18    57    1
    62    18    58    1
    63    26    59    1
    64    27    60    1
    65    28    61    1
    66    29    62    1
    67    30    63    1
@<TRIPOS>SUBSTRUCTURE
     1 <0>         1 TEMP              0 ****  ****    0 ROOT

