
##########                                Name:        E4D_600_1SJ0
##########                    Molecular_Weight:             464.605
##########                DOCK_Rotatable_Bonds:                   8
##########                       Formal_Charge:              1.0003
##########                     HBond_Acceptors:                   6
##########                        HBond_Donors:                   3
##########                         Heavy_Atoms:                  33
##########                            HA_RMSDs:               0.435
##########                            HA_RMSDh:               0.435
##########                            HA_RMSDm:               0.435
##########                          Grid_Score:         -114.319855
##########                     Grid_vdw_energy:          -67.040268
##########                      Grid_es_energy:          -47.279583
##########           Internal_energy_repulsive:           13.120478

@<TRIPOS>MOLECULE
E4D_600_1SJ0
 63 67 1 0 0
SMALL
USER_CHARGES


@<TRIPOS>ATOM
      1 C1         32.4369    1.6749   27.4584 C.ar    1  <0>        -0.0550
      2 C2         33.2764    0.5919   29.4502 C.ar    1  <0>        -0.0550
      3 C3         32.4086   -2.5746   26.7628 C.ar    1  <0>        -0.0536
      4 C4         30.8817   -0.9609   25.8379 C.ar    1  <0>        -0.0536
      5 C5         33.6863    2.2800   27.2660 C.ar    1  <0>        -0.0316
      6 C6         34.5380    1.1711   29.2590 C.ar    1  <0>        -0.0316
      7 C7         32.8421   -2.9339   25.4846 C.ar    1  <0>        -0.0313
      8 C8         31.2979   -1.3379   24.5323 C.ar    1  <0>        -0.0313
      9 C9         26.5195   -2.3161   27.2524 C.ar    1  <0>        -0.0294
     10 C10        27.7246   -2.6382   27.8606 C.ar    1  <0>        -0.0281
     11 C11        27.0577    0.0290   27.5455 C.ar    1  <0>        -0.0160
     12 C12        31.2921   -2.3616   18.0764 C.3     1  <0>        -0.0434
     13 C13        30.4782   -2.9832   19.2308 C.3     1  <0>        -0.0123
     14 C14        32.5790   -3.2114   17.9090 C.3     1  <0>        -0.0123
     15 C15        31.3276   -3.1606   20.5088 C.3     1  <0>        -0.0318
     16 C16        33.3996   -3.2502   19.2277 C.3     1  <0>        -0.0318
     17 C17        33.2796   -4.4121   21.4845 C.3     1  <0>        -0.0074
     18 C18        33.6907   -3.5612   22.7073 C.3     1  <0>         0.0940
     19 C19        31.4227   -1.5996   26.9564 C.ar    1  <0>        -0.0169
     20 C20        32.2285    0.8226   28.5448 C.ar    1  <0>        -0.0311
     21 C21        34.7293    2.0374   28.1749 C.ar    1  <0>         0.0726
     22 C22        32.3083   -2.2669   24.3559 C.ar    1  <0>         0.0764
     23 C23        26.1309   -0.9678   27.1986 C.ar    1  <0>         0.0738
     24 C24        28.6426   -1.6569   28.2002 C.ar    1  <0>         0.0906
     25 C25        28.3272   -0.2833   28.0045 C.ar    1  <0>         0.0410
     26 C26        31.0533   -1.3466   28.4158 C.3     1  <0>         0.1063
     27 C27        30.9333    0.1118   28.8611 C.3     1  <0>         0.0656
     28 N1         32.5944   -3.8416   20.3007 N.4     1  <0>         0.2369
     29 O1         35.9420    2.5880   27.9768 O.3     1  <0>        -0.3598
     30 O2         24.9148   -0.6782   26.7224 O.3     1  <0>        -0.3598
     31 O3         29.8303   -2.0407   28.6986 O.3     1  <0>        -0.3343
     32 O4         32.7338   -2.5617   23.0996 O.3     1  <0>        -0.3394
     33 S1         29.3691    0.7630   28.2915 S.3     1  <0>        -0.1115
     34 H1         31.6325    1.8683   26.7641 H       1  <0>         0.0621
     35 H2         33.1075   -0.0422   30.3080 H       1  <0>         0.0621
     36 H3         32.8447   -3.0609   27.6229 H       1  <0>         0.0622
     37 H4         30.1465   -0.1801   25.9655 H       1  <0>         0.0622
     38 H5         33.8469    2.9318   26.4200 H       1  <0>         0.0643
     39 H6         35.3500    0.9531   29.9368 H       1  <0>         0.0643
     40 H7         33.5784   -3.7140   25.3584 H       1  <0>         0.0643
     41 H8         30.8214   -0.8952   23.6701 H       1  <0>         0.0643
     42 H9         25.8929   -3.0871   26.8288 H       1  <0>         0.0644
     43 H10        27.9514   -3.6726   28.0731 H       1  <0>         0.0644
     44 H11        26.7732    1.0667   27.4519 H       1  <0>         0.0655
     45 H12        30.7042   -2.3754   17.1468 H       1  <0>         0.0269
     46 H13        31.5532   -1.3197   18.3138 H       1  <0>         0.0269
     47 H14        29.6317   -2.3197   19.4609 H       1  <0>         0.0317
     48 H15        30.1134   -3.9706   18.9115 H       1  <0>         0.0317
     49 H16        32.2954   -4.2382   17.6349 H       1  <0>         0.0317
     50 H17        33.1988   -2.7677   17.1160 H       1  <0>         0.0317
     51 H18        31.5451   -2.1599   20.9102 H       1  <0>         0.0814
     52 H19        30.7396   -3.7543   21.2242 H       1  <0>         0.0814
     53 H20        34.3045   -3.8569   19.0753 H       1  <0>         0.0814
     54 H21        33.6847   -2.2257   19.5091 H       1  <0>         0.0814
     55 H22        34.2185   -4.8356   21.0985 H       1  <0>         0.0837
     56 H23        32.5887   -5.1712   21.8801 H       1  <0>         0.0837
     57 H24        33.8288   -4.2441   23.5586 H       1  <0>         0.0619
     58 H25        34.6289   -3.0452   22.4553 H       1  <0>         0.0619
     59 H26        31.9083   -1.7235   28.9960 H       1  <0>         0.0666
     60 H27        30.8529    0.2691   29.9468 H       1  <0>         0.0493
     61 H28        32.3395   -4.7294   19.9176 H       1  <0>         0.2034
     62 H29        36.5572    2.2361   28.6094 H       1  <0>         0.2173
     63 H30        24.7964    0.2643   26.7074 H       1  <0>         0.2173
@<TRIPOS>BOND
     1     1     5   ar
     2     1    20   ar
     3     2     6   ar
     4     2    20   ar
     5     3     7   ar
     6     3    19   ar
     7     4     8   ar
     8     4    19   ar
     9     5    21   ar
    10     6    21   ar
    11     7    22   ar
    12     8    22   ar
    13     9    10   ar
    14     9    23   ar
    15    10    24   ar
    16    11    23   ar
    17    11    25   ar
    18    12    13    1
    19    12    14    1
    20    13    15    1
    21    14    16    1
    22    15    28    1
    23    16    28    1
    24    17    18    1
    25    17    28    1
    26    18    32    1
    27    19    26    1
    28    20    27    1
    29    21    29    1
    30    22    32    1
    31    23    30    1
    32    24    25   ar
    33    24    31    1
    34    25    33    1
    35    26    27    1
    36    26    31    1
    37    27    33    1
    38     1    34    1
    39     2    35    1
    40     3    36    1
    41     4    37    1
    42     5    38    1
    43     6    39    1
    44     7    40    1
    45     8    41    1
    46     9    42    1
    47    10    43    1
    48    11    44    1
    49    12    45    1
    50    12    46    1
    51    13    47    1
    52    13    48    1
    53    14    49    1
    54    14    50    1
    55    15    51    1
    56    15    52    1
    57    16    53    1
    58    16    54    1
    59    17    55    1
    60    17    56    1
    61    18    57    1
    62    18    58    1
    63    26    59    1
    64    27    60    1
    65    28    61    1
    66    29    62    1
    67    30    63    1
@<TRIPOS>SUBSTRUCTURE
     1 <0>         1 TEMP              0 ****  ****    0 ROOT

