
##########                                Name:        E4D_600_1SJ0
##########                    Molecular_Weight:             464.605
##########                DOCK_Rotatable_Bonds:                   8
##########                       Formal_Charge:              1.0003
##########                     HBond_Acceptors:                   6
##########                        HBond_Donors:                   3
##########                         Heavy_Atoms:                  33
##########                            HA_RMSDs:               0.370
##########                            HA_RMSDh:               0.370
##########                            HA_RMSDm:               0.370
##########                          Grid_Score:         -109.383774
##########                     Grid_vdw_energy:          -61.074585
##########                      Grid_es_energy:          -48.309185
##########           Internal_energy_repulsive:           14.371528

@<TRIPOS>MOLECULE
E4D_600_1SJ0
 63 67 1 0 0
SMALL
USER_CHARGES


@<TRIPOS>ATOM
      1 C1         32.6523    1.3771   27.2121 C.ar    1  <0>        -0.0550
      2 C2         33.2703    0.6197   29.4233 C.ar    1  <0>        -0.0550
      3 C3         32.4703   -2.6247   26.5301 C.ar    1  <0>        -0.0536
      4 C4         30.9340   -1.0158   25.6124 C.ar    1  <0>        -0.0536
      5 C5         33.9151    1.9672   27.0660 C.ar    1  <0>        -0.0316
      6 C6         34.5450    1.1846   29.2837 C.ar    1  <0>        -0.0316
      7 C7         32.9190   -2.9627   25.2513 C.ar    1  <0>        -0.0313
      8 C8         31.3659   -1.3712   24.3058 C.ar    1  <0>        -0.0313
      9 C9         26.5447   -2.2310   26.9297 C.ar    1  <0>        -0.0294
     10 C10        27.7292   -2.6054   27.5486 C.ar    1  <0>        -0.0281
     11 C11        27.1510    0.0883   27.2876 C.ar    1  <0>        -0.0160
     12 C12        30.9048   -2.2872   18.1247 C.3     1  <0>        -0.0434
     13 C13        30.2623   -2.9257   19.3741 C.3     1  <0>        -0.0123
     14 C14        32.1588   -3.1285   17.7695 C.3     1  <0>        -0.0123
     15 C15        31.2824   -3.1128   20.5190 C.3     1  <0>        -0.0318
     16 C16        33.1557   -3.1776   18.9602 C.3     1  <0>        -0.0318
     17 C17        33.3560   -4.3648   21.1981 C.3     1  <0>        -0.0074
     18 C18        33.7584   -3.5807   22.4676 C.3     1  <0>         0.0940
     19 C19        31.4721   -1.6631   26.7274 C.ar    1  <0>        -0.0169
     20 C20        32.3271    0.6943   28.3861 C.ar    1  <0>        -0.0311
     21 C21        34.8529    1.8814   28.1080 C.ar    1  <0>         0.0726
     22 C22        32.3880   -2.2869   24.1265 C.ar    1  <0>         0.0764
     23 C23        26.1994   -0.8703   26.9024 C.ar    1  <0>         0.0738
     24 C24        28.6716   -1.6619   27.9261 C.ar    1  <0>         0.0906
     25 C25        28.4025   -0.2747   27.7586 C.ar    1  <0>         0.0410
     26 C26        31.0870   -1.4330   28.1865 C.3     1  <0>         0.1063
     27 C27        31.0054    0.0175   28.6649 C.3     1  <0>         0.0656
     28 N1         32.5102   -3.7848   20.1282 N.4     1  <0>         0.2369
     29 O1         36.0798    2.4162   27.9607 O.3     1  <0>        -0.3598
     30 O2         25.0008   -0.5312   26.4145 O.3     1  <0>        -0.3598
     31 O3         29.8385   -2.0946   28.4335 O.3     1  <0>        -0.3343
     32 O4         32.8278   -2.5608   22.8704 O.3     1  <0>        -0.3394
     33 S1         29.4717    0.7311   28.0869 S.3     1  <0>        -0.1115
     34 H1         31.9283    1.4506   26.4141 H       1  <0>         0.0621
     35 H2         33.0091    0.1189   30.3439 H       1  <0>         0.0621
     36 H3         32.9040   -3.1174   27.3878 H       1  <0>         0.0622
     37 H4         30.1893   -0.2448   25.7433 H       1  <0>         0.0622
     38 H5         34.1666    2.4872   26.1535 H       1  <0>         0.0643
     39 H6         35.2784    1.0845   30.0700 H       1  <0>         0.0643
     40 H7         33.6648   -3.7330   25.1218 H       1  <0>         0.0643
     41 H8         30.8922   -0.9227   23.4451 H       1  <0>         0.0643
     42 H9         25.9013   -2.9717   26.4779 H       1  <0>         0.0644
     43 H10        27.9200   -3.6511   27.7396 H       1  <0>         0.0644
     44 H11        26.9006    1.1363   27.2146 H       1  <0>         0.0655
     45 H12        30.1930   -2.2939   17.2862 H       1  <0>         0.0269
     46 H13        31.1928   -1.2467   18.3354 H       1  <0>         0.0269
     47 H14        29.4538   -2.2691   19.7278 H       1  <0>         0.0317
     48 H15        29.8601   -3.9114   19.0974 H       1  <0>         0.0317
     49 H16        31.8434   -4.1537   17.5258 H       1  <0>         0.0317
     50 H17        32.6603   -2.6729   16.9029 H       1  <0>         0.0317
     51 H18        31.5503   -2.1154   20.8977 H       1  <0>         0.0814
     52 H19        30.8022   -3.7173   21.3025 H       1  <0>         0.0814
     53 H20        34.0326   -3.7779   18.6760 H       1  <0>         0.0814
     54 H21        33.4735   -2.1548   19.2109 H       1  <0>         0.0814
     55 H22        34.3050   -4.6253   20.7067 H       1  <0>         0.0837
     56 H23        32.7993   -5.2402   21.5637 H       1  <0>         0.0837
     57 H24        33.8419   -4.3022   23.2937 H       1  <0>         0.0619
     58 H25        34.7234   -3.0924   22.2671 H       1  <0>         0.0619
     59 H26        31.9203   -1.8504   28.7707 H       1  <0>         0.0666
     60 H27        30.9122    0.1516   29.7527 H       1  <0>         0.0493
     61 H28        32.2075   -4.6697   19.7741 H       1  <0>         0.2034
     62 H29        36.5365    2.3964   28.7934 H       1  <0>         0.2173
     63 H30        25.0013    0.3905   26.1846 H       1  <0>         0.2173
@<TRIPOS>BOND
     1     1     5   ar
     2     1    20   ar
     3     2     6   ar
     4     2    20   ar
     5     3     7   ar
     6     3    19   ar
     7     4     8   ar
     8     4    19   ar
     9     5    21   ar
    10     6    21   ar
    11     7    22   ar
    12     8    22   ar
    13     9    10   ar
    14     9    23   ar
    15    10    24   ar
    16    11    23   ar
    17    11    25   ar
    18    12    13    1
    19    12    14    1
    20    13    15    1
    21    14    16    1
    22    15    28    1
    23    16    28    1
    24    17    18    1
    25    17    28    1
    26    18    32    1
    27    19    26    1
    28    20    27    1
    29    21    29    1
    30    22    32    1
    31    23    30    1
    32    24    25   ar
    33    24    31    1
    34    25    33    1
    35    26    27    1
    36    26    31    1
    37    27    33    1
    38     1    34    1
    39     2    35    1
    40     3    36    1
    41     4    37    1
    42     5    38    1
    43     6    39    1
    44     7    40    1
    45     8    41    1
    46     9    42    1
    47    10    43    1
    48    11    44    1
    49    12    45    1
    50    12    46    1
    51    13    47    1
    52    13    48    1
    53    14    49    1
    54    14    50    1
    55    15    51    1
    56    15    52    1
    57    16    53    1
    58    16    54    1
    59    17    55    1
    60    17    56    1
    61    18    57    1
    62    18    58    1
    63    26    59    1
    64    27    60    1
    65    28    61    1
    66    29    62    1
    67    30    63    1
@<TRIPOS>SUBSTRUCTURE
     1 <0>         1 TEMP              0 ****  ****    0 ROOT

