
##########                                Name:        E4D_600_1SJ0
##########                    Molecular_Weight:             464.605
##########                DOCK_Rotatable_Bonds:                   8
##########                       Formal_Charge:              1.0003
##########                     HBond_Acceptors:                   6
##########                        HBond_Donors:                   3
##########                         Heavy_Atoms:                  33
##########                            HA_RMSDs:               0.347
##########                            HA_RMSDh:               0.347
##########                            HA_RMSDm:               0.347
##########                          Grid_Score:         -111.315071
##########                     Grid_vdw_energy:          -65.217972
##########                      Grid_es_energy:          -46.097099
##########           Internal_energy_repulsive:           13.075950

@<TRIPOS>MOLECULE
E4D_600_1SJ0
 63 67 1 0 0
SMALL
USER_CHARGES


@<TRIPOS>ATOM
      1 C1         32.5121    1.5299   27.4161 C.ar    1  <0>        -0.0550
      2 C2         33.3752    0.3423   29.3370 C.ar    1  <0>        -0.0550
      3 C3         32.4205   -2.6467   26.6592 C.ar    1  <0>        -0.0536
      4 C4         30.7686   -1.1350   25.7777 C.ar    1  <0>        -0.0536
      5 C5         33.7774    2.0929   27.2011 C.ar    1  <0>        -0.0316
      6 C6         34.6516    0.8789   29.1218 C.ar    1  <0>        -0.0316
      7 C7         32.8266   -2.9947   25.3690 C.ar    1  <0>        -0.0313
      8 C8         31.1575   -1.5019   24.4609 C.ar    1  <0>        -0.0313
      9 C9         26.4702   -2.2862   27.2762 C.ar    1  <0>        -0.0294
     10 C10        27.6768   -2.6552   27.8542 C.ar    1  <0>        -0.0281
     11 C11        27.0924    0.0362   27.5837 C.ar    1  <0>        -0.0160
     12 C12        31.5424   -2.5346   17.7541 C.3     1  <0>        -0.0434
     13 C13        30.6421   -3.0395   18.9011 C.3     1  <0>        -0.0123
     14 C14        32.7855   -3.4609   17.7010 C.3     1  <0>        -0.0123
     15 C15        31.4199   -3.1834   20.2280 C.3     1  <0>        -0.0318
     16 C16        33.5407   -3.4627   19.0588 C.3     1  <0>        -0.0318
     17 C17        33.2506   -4.4756   21.3713 C.3     1  <0>        -0.0074
     18 C18        33.6318   -3.5771   22.5695 C.3     1  <0>         0.0940
     19 C19        31.3871   -1.7285   26.8809 C.ar    1  <0>        -0.0169
     20 C20        32.3070    0.6466   28.4783 C.ar    1  <0>        -0.0311
     21 C21        34.8403    1.7767   28.0631 C.ar    1  <0>         0.0726
     22 C22        32.2133   -2.3727   24.2551 C.ar    1  <0>         0.0764
     23 C23        26.1257   -0.9253   27.2461 C.ar    1  <0>         0.0738
     24 C24        28.6340   -1.7088   28.1846 C.ar    1  <0>         0.0906
     25 C25        28.3603   -0.3233   28.0112 C.ar    1  <0>         0.0410
     26 C26        31.0578   -1.4808   28.3507 C.3     1  <0>         0.1063
     27 C27        30.9960   -0.0247   28.8148 C.3     1  <0>         0.0656
     28 N1         32.6544   -3.9429   20.1234 N.4     1  <0>         0.2369
     29 O1         36.0665    2.2869   27.8418 O.3     1  <0>        -0.3598
     30 O2         24.9099   -0.5900   26.7999 O.3     1  <0>        -0.3598
     31 O3         29.8188   -2.1375   28.6525 O.3     1  <0>        -0.3343
     32 O4         32.6084   -2.6565   22.9864 O.3     1  <0>        -0.3394
     33 S1         29.4424    0.6846   28.2870 S.3     1  <0>        -0.1115
     34 H1         31.6929    1.7799   26.7582 H       1  <0>         0.0621
     35 H2         33.2104   -0.3162   30.1771 H       1  <0>         0.0621
     36 H3         32.9157   -3.0971   27.5067 H       1  <0>         0.0622
     37 H4         29.9943   -0.3968   25.9257 H       1  <0>         0.0622
     38 H5         33.9349    2.7689   26.3737 H       1  <0>         0.0643
     39 H6         35.4769    0.6047   29.7621 H       1  <0>         0.0643
     40 H7         33.6020   -3.7321   25.2223 H       1  <0>         0.0643
     41 H8         30.6243   -1.0975   23.6132 H       1  <0>         0.0643
     42 H9         25.8094   -3.0310   26.8579 H       1  <0>         0.0644
     43 H10        27.8735   -3.6989   28.0501 H       1  <0>         0.0644
     44 H11        26.8406    1.0837   27.5080 H       1  <0>         0.0655
     45 H12        30.9983   -2.5739   16.7988 H       1  <0>         0.0269
     46 H13        31.8507   -1.4956   17.9425 H       1  <0>         0.0269
     47 H14        29.8246   -2.3186   19.0495 H       1  <0>         0.0317
     48 H15        30.2371   -4.0237   18.6227 H       1  <0>         0.0317
     49 H16        32.4573   -4.4859   17.4739 H       1  <0>         0.0317
     50 H17        33.4656   -3.1007   16.9150 H       1  <0>         0.0317
     51 H18        31.6748   -2.1731   20.5802 H       1  <0>         0.0814
     52 H19        30.7668   -3.6997   20.9470 H       1  <0>         0.0814
     53 H20        34.4159   -4.1253   18.9874 H       1  <0>         0.0814
     54 H21        33.8699   -2.4396   19.2933 H       1  <0>         0.0814
     55 H22        34.1900   -4.9561   21.0603 H       1  <0>         0.0837
     56 H23        32.5081   -5.1844   21.7665 H       1  <0>         0.0837
     57 H24        33.8574   -4.2347   23.4220 H       1  <0>         0.0619
     58 H25        34.5134   -2.9875   22.2780 H       1  <0>         0.0619
     59 H26        31.9121   -1.8927   28.9078 H       1  <0>         0.0666
     60 H27        30.9443    0.1222   29.9037 H       1  <0>         0.0493
     61 H28        32.3677   -4.8376   19.7810 H       1  <0>         0.2034
     62 H29        36.6779    1.9286   28.4745 H       1  <0>         0.2173
     63 H30        24.7954    0.3506   26.8682 H       1  <0>         0.2173
@<TRIPOS>BOND
     1     1     5   ar
     2     1    20   ar
     3     2     6   ar
     4     2    20   ar
     5     3     7   ar
     6     3    19   ar
     7     4     8   ar
     8     4    19   ar
     9     5    21   ar
    10     6    21   ar
    11     7    22   ar
    12     8    22   ar
    13     9    10   ar
    14     9    23   ar
    15    10    24   ar
    16    11    23   ar
    17    11    25   ar
    18    12    13    1
    19    12    14    1
    20    13    15    1
    21    14    16    1
    22    15    28    1
    23    16    28    1
    24    17    18    1
    25    17    28    1
    26    18    32    1
    27    19    26    1
    28    20    27    1
    29    21    29    1
    30    22    32    1
    31    23    30    1
    32    24    25   ar
    33    24    31    1
    34    25    33    1
    35    26    27    1
    36    26    31    1
    37    27    33    1
    38     1    34    1
    39     2    35    1
    40     3    36    1
    41     4    37    1
    42     5    38    1
    43     6    39    1
    44     7    40    1
    45     8    41    1
    46     9    42    1
    47    10    43    1
    48    11    44    1
    49    12    45    1
    50    12    46    1
    51    13    47    1
    52    13    48    1
    53    14    49    1
    54    14    50    1
    55    15    51    1
    56    15    52    1
    57    16    53    1
    58    16    54    1
    59    17    55    1
    60    17    56    1
    61    18    57    1
    62    18    58    1
    63    26    59    1
    64    27    60    1
    65    28    61    1
    66    29    62    1
    67    30    63    1
@<TRIPOS>SUBSTRUCTURE
     1 <0>         1 TEMP              0 ****  ****    0 ROOT

