
##########                                Name:        E4D_600_1SJ0
##########                    Molecular_Weight:             464.605
##########                DOCK_Rotatable_Bonds:                   8
##########                       Formal_Charge:              1.0003
##########                     HBond_Acceptors:                   6
##########                        HBond_Donors:                   3
##########                         Heavy_Atoms:                  33
##########                            HA_RMSDs:               0.322
##########                            HA_RMSDh:               0.322
##########                            HA_RMSDm:               0.322
##########                          Grid_Score:         -113.306412
##########                     Grid_vdw_energy:          -66.732887
##########                      Grid_es_energy:          -46.573528
##########           Internal_energy_repulsive:           13.688540

@<TRIPOS>MOLECULE
E4D_600_1SJ0
 63 67 1 0 0
SMALL
USER_CHARGES


@<TRIPOS>ATOM
      1 C1         32.3867    1.5800   27.3829 C.ar    1  <0>        -0.0550
      2 C2         33.2748    0.3887   29.2900 C.ar    1  <0>        -0.0550
      3 C3         32.3951   -2.6042   26.5407 C.ar    1  <0>        -0.0536
      4 C4         30.7483   -1.0706   25.6880 C.ar    1  <0>        -0.0536
      5 C5         33.6352    2.1851   27.1849 C.ar    1  <0>        -0.0316
      6 C6         34.5353    0.9677   29.0916 C.ar    1  <0>        -0.0316
      7 C7         32.8118   -2.9162   25.2447 C.ar    1  <0>        -0.0313
      8 C8         31.1480   -1.4008   24.3647 C.ar    1  <0>        -0.0313
      9 C9         26.4594   -2.4045   27.1442 C.ar    1  <0>        -0.0294
     10 C10        27.6746   -2.7497   27.7189 C.ar    1  <0>        -0.0281
     11 C11        27.0114   -0.0718   27.5025 C.ar    1  <0>        -0.0160
     12 C12        31.4689   -2.7016   17.6198 C.3     1  <0>        -0.0434
     13 C13        30.6247   -3.1254   18.8401 C.3     1  <0>        -0.0123
     14 C14        32.7222   -3.6150   17.5860 C.3     1  <0>        -0.0123
     15 C15        31.4591   -3.1559   20.1397 C.3     1  <0>        -0.0318
     16 C16        33.5333   -3.5018   18.9063 C.3     1  <0>        -0.0318
     17 C17        33.3547   -4.3335   21.3010 C.3     1  <0>        -0.0074
     18 C18        33.7000   -3.3503   22.4422 C.3     1  <0>         0.0940
     19 C19        31.3588   -1.6935   26.7793 C.ar    1  <0>        -0.0169
     20 C20        32.2028    0.6738   28.4295 C.ar    1  <0>        -0.0311
     21 C21        34.7023    1.8879   28.0485 C.ar    1  <0>         0.0726
     22 C22        32.2064   -2.2644   24.1434 C.ar    1  <0>         0.0764
     23 C23        26.0748   -1.0541   27.1412 C.ar    1  <0>         0.0738
     24 C24        28.6023   -1.7826   28.0727 C.ar    1  <0>         0.0906
     25 C25        28.2881   -0.4025   27.9273 C.ar    1  <0>         0.0410
     26 C26        31.0176   -1.4865   28.2527 C.3     1  <0>         0.1063
     27 C27        30.9112   -0.0430   28.7470 C.3     1  <0>         0.0656
     28 N1         32.6993   -3.9071   20.0420 N.4     1  <0>         0.2369
     29 O1         35.9135    2.4392   27.8432 O.3     1  <0>        -0.3598
     30 O2         24.8510   -0.7456   26.6976 O.3     1  <0>        -0.3598
     31 O3         29.7977   -2.1858   28.5361 O.3     1  <0>        -0.3343
     32 O4         32.6120   -2.5130   22.8706 O.3     1  <0>        -0.3394
     33 S1         29.3390    0.6309   28.2282 S.3     1  <0>        -0.1115
     34 H1         31.5640    1.8152   26.7239 H       1  <0>         0.0621
     35 H2         33.1256   -0.2880   30.1185 H       1  <0>         0.0621
     36 H3         32.8842   -3.0771   27.3794 H       1  <0>         0.0622
     37 H4         29.9719   -0.3375   25.8501 H       1  <0>         0.0622
     38 H5         33.7766    2.8789   26.3694 H       1  <0>         0.0643
     39 H6         35.3649    0.7088   29.7326 H       1  <0>         0.0643
     40 H7         33.5892   -3.6484   25.0840 H       1  <0>         0.0643
     41 H8         30.6210   -0.9738   23.5243 H       1  <0>         0.0643
     42 H9         25.8223   -3.1596   26.7079 H       1  <0>         0.0644
     43 H10        27.9016   -3.7911   27.8937 H       1  <0>         0.0644
     44 H11        26.7289    0.9692   27.4478 H       1  <0>         0.0655
     45 H12        30.8862   -2.8219   16.6947 H       1  <0>         0.0269
     46 H13        31.7695   -1.6476   17.7135 H       1  <0>         0.0269
     47 H14        29.8036   -2.4044   18.9667 H       1  <0>         0.0317
     48 H15        30.2230   -4.1329   18.6567 H       1  <0>         0.0317
     49 H16        32.3999   -4.6584   17.4537 H       1  <0>         0.0317
     50 H17        33.3636   -3.3098   16.7461 H       1  <0>         0.0317
     51 H18        31.7136   -2.1182   20.4010 H       1  <0>         0.0814
     52 H19        30.8442   -3.6216   20.9239 H       1  <0>         0.0814
     53 H20        34.4144   -4.1579   18.8495 H       1  <0>         0.0814
     54 H21        33.8568   -2.4598   19.0462 H       1  <0>         0.0814
     55 H22        34.3173   -4.7677   20.9927 H       1  <0>         0.0837
     56 H23        32.6689   -5.0673   21.7495 H       1  <0>         0.0837
     57 H24        34.0255   -3.9448   23.3086 H       1  <0>         0.0619
     58 H25        34.5068   -2.6935   22.0849 H       1  <0>         0.0619
     59 H26        31.8820   -1.8845   28.8044 H       1  <0>         0.0666
     60 H27        30.8517    0.0794   29.8385 H       1  <0>         0.0493
     61 H28        32.4117   -4.8291   19.7828 H       1  <0>         0.2034
     62 H29        36.5046    2.1738   28.5379 H       1  <0>         0.2173
     63 H30        24.6913    0.1818   26.8269 H       1  <0>         0.2173
@<TRIPOS>BOND
     1     1     5   ar
     2     1    20   ar
     3     2     6   ar
     4     2    20   ar
     5     3     7   ar
     6     3    19   ar
     7     4     8   ar
     8     4    19   ar
     9     5    21   ar
    10     6    21   ar
    11     7    22   ar
    12     8    22   ar
    13     9    10   ar
    14     9    23   ar
    15    10    24   ar
    16    11    23   ar
    17    11    25   ar
    18    12    13    1
    19    12    14    1
    20    13    15    1
    21    14    16    1
    22    15    28    1
    23    16    28    1
    24    17    18    1
    25    17    28    1
    26    18    32    1
    27    19    26    1
    28    20    27    1
    29    21    29    1
    30    22    32    1
    31    23    30    1
    32    24    25   ar
    33    24    31    1
    34    25    33    1
    35    26    27    1
    36    26    31    1
    37    27    33    1
    38     1    34    1
    39     2    35    1
    40     3    36    1
    41     4    37    1
    42     5    38    1
    43     6    39    1
    44     7    40    1
    45     8    41    1
    46     9    42    1
    47    10    43    1
    48    11    44    1
    49    12    45    1
    50    12    46    1
    51    13    47    1
    52    13    48    1
    53    14    49    1
    54    14    50    1
    55    15    51    1
    56    15    52    1
    57    16    53    1
    58    16    54    1
    59    17    55    1
    60    17    56    1
    61    18    57    1
    62    18    58    1
    63    26    59    1
    64    27    60    1
    65    28    61    1
    66    29    62    1
    67    30    63    1
@<TRIPOS>SUBSTRUCTURE
     1 <0>         1 TEMP              0 ****  ****    0 ROOT

