
##########                                Name:        E4D_600_1SJ0
##########                    Molecular_Weight:             464.605
##########                DOCK_Rotatable_Bonds:                   8
##########                       Formal_Charge:              1.0003
##########                     HBond_Acceptors:                   6
##########                        HBond_Donors:                   3
##########                         Heavy_Atoms:                  33
##########                            HA_RMSDs:               0.378
##########                            HA_RMSDh:               0.378
##########                            HA_RMSDm:               0.378
##########                          Grid_Score:         -112.088905
##########                     Grid_vdw_energy:          -64.230614
##########                      Grid_es_energy:          -47.858292
##########           Internal_energy_repulsive:           13.584880

@<TRIPOS>MOLECULE
E4D_600_1SJ0
 63 67 1 0 0
SMALL
USER_CHARGES


@<TRIPOS>ATOM
      1 C1         32.4355    1.6212   27.4045 C.ar    1  <0>        -0.0550
      2 C2         33.2152    0.4846   29.3908 C.ar    1  <0>        -0.0550
      3 C3         32.3135   -2.7066   26.6047 C.ar    1  <0>        -0.0536
      4 C4         31.0082   -0.9010   25.6952 C.ar    1  <0>        -0.0536
      5 C5         33.6926    2.2238   27.2611 C.ar    1  <0>        -0.0316
      6 C6         34.4844    1.0613   29.2482 C.ar    1  <0>        -0.0316
      7 C7         32.7689   -3.0523   25.3304 C.ar    1  <0>        -0.0313
      8 C8         31.4460   -1.2612   24.3918 C.ar    1  <0>        -0.0313
      9 C9         26.5128   -2.3424   26.9396 C.ar    1  <0>        -0.0294
     10 C10        27.6982   -2.6823   27.5765 C.ar    1  <0>        -0.0281
     11 C11        27.0514   -0.0062   27.2959 C.ar    1  <0>        -0.0160
     12 C12        31.2815   -2.3360   17.9932 C.3     1  <0>        -0.0434
     13 C13        30.4789   -3.0074   19.1274 C.3     1  <0>        -0.0123
     14 C14        32.5881   -3.1511   17.8073 C.3     1  <0>        -0.0123
     15 C15        31.3284   -3.2000   20.4032 C.3     1  <0>        -0.0318
     16 C16        33.4057   -3.2070   19.1273 C.3     1  <0>        -0.0318
     17 C17        33.3060   -4.4324   21.3513 C.3     1  <0>        -0.0074
     18 C18        33.7400   -3.5956   22.5760 C.3     1  <0>         0.0940
     19 C19        31.4255   -1.6426   26.8032 C.ar    1  <0>        -0.0169
     20 C20        32.1935    0.7435   28.4635 C.ar    1  <0>        -0.0311
     21 C21        34.7093    1.9531   28.1915 C.ar    1  <0>         0.0726
     22 C22        32.3622   -2.2829   24.2139 C.ar    1  <0>         0.0764
     23 C23        26.1314   -0.9916   26.9017 C.ar    1  <0>         0.0738
     24 C24        28.6095   -1.7122   27.9629 C.ar    1  <0>         0.0906
     25 C25        28.3055   -0.3335   27.7858 C.ar    1  <0>         0.0410
     26 C26        31.0140   -1.4172   28.2558 C.3     1  <0>         0.1063
     27 C27        30.8867    0.0324   28.7268 C.3     1  <0>         0.0656
     28 N1         32.6112   -3.8457   20.1810 N.4     1  <0>         0.2369
     29 O1         35.9297    2.5016   28.0401 O.3     1  <0>        -0.3598
     30 O2         24.9311   -0.6869   26.3958 O.3     1  <0>        -0.3598
     31 O3         29.7804   -2.1113   28.4883 O.3     1  <0>        -0.3343
     32 O4         32.8153   -2.5648   22.9642 O.3     1  <0>        -0.3394
     33 S1         29.3426    0.7021   28.1246 S.3     1  <0>        -0.1115
     34 H1         31.6512    1.8363   26.6938 H       1  <0>         0.0621
     35 H2         33.0200   -0.1695   30.2277 H       1  <0>         0.0621
     36 H3         32.6547   -3.2740   27.4579 H       1  <0>         0.0622
     37 H4         30.3524   -0.0535   25.8291 H       1  <0>         0.0622
     38 H5         33.8793    2.8955   26.4362 H       1  <0>         0.0643
     39 H6         35.2766    0.8220   29.9421 H       1  <0>         0.0643
     40 H7         33.4257   -3.8993   25.1980 H       1  <0>         0.0643
     41 H8         31.0601   -0.7328   23.5327 H       1  <0>         0.0643
     42 H9         25.8960   -3.1019   26.4822 H       1  <0>         0.0644
     43 H10        27.9144   -3.7217   27.7746 H       1  <0>         0.0644
     44 H11        26.7739    1.0344   27.2150 H       1  <0>         0.0655
     45 H12        30.6967   -2.3381   17.0616 H       1  <0>         0.0269
     46 H13        31.5178   -1.2952   18.2598 H       1  <0>         0.0269
     47 H14        29.6166   -2.3700   19.3725 H       1  <0>         0.0317
     48 H15        30.1378   -3.9939   18.7802 H       1  <0>         0.0317
     49 H16        32.3291   -4.1764   17.5044 H       1  <0>         0.0317
     50 H17        33.1999   -2.6718   17.0288 H       1  <0>         0.0317
     51 H18        31.5216   -2.2058   20.8324 H       1  <0>         0.0814
     52 H19        30.7522   -3.8263   21.1001 H       1  <0>         0.0814
     53 H20        34.3248   -3.7883   18.9617 H       1  <0>         0.0814
     54 H21        33.6662   -2.1842   19.4374 H       1  <0>         0.0814
     55 H22        34.2362   -4.8609   20.9500 H       1  <0>         0.0837
     56 H23        32.6133   -5.1886   21.7492 H       1  <0>         0.0837
     57 H24        33.8517   -4.2827   23.4277 H       1  <0>         0.0619
     58 H25        34.6959   -3.1112   22.3280 H       1  <0>         0.0619
     59 H26        31.8500   -1.8097   28.8533 H       1  <0>         0.0666
     60 H27        30.7748    0.1682   29.8127 H       1  <0>         0.0493
     61 H28        32.3780   -4.7284   19.7731 H       1  <0>         0.2034
     62 H29        36.4503    2.3362   28.8173 H       1  <0>         0.2173
     63 H30        24.9099    0.2336   26.1621 H       1  <0>         0.2173
@<TRIPOS>BOND
     1     1     5   ar
     2     1    20   ar
     3     2     6   ar
     4     2    20   ar
     5     3     7   ar
     6     3    19   ar
     7     4     8   ar
     8     4    19   ar
     9     5    21   ar
    10     6    21   ar
    11     7    22   ar
    12     8    22   ar
    13     9    10   ar
    14     9    23   ar
    15    10    24   ar
    16    11    23   ar
    17    11    25   ar
    18    12    13    1
    19    12    14    1
    20    13    15    1
    21    14    16    1
    22    15    28    1
    23    16    28    1
    24    17    18    1
    25    17    28    1
    26    18    32    1
    27    19    26    1
    28    20    27    1
    29    21    29    1
    30    22    32    1
    31    23    30    1
    32    24    25   ar
    33    24    31    1
    34    25    33    1
    35    26    27    1
    36    26    31    1
    37    27    33    1
    38     1    34    1
    39     2    35    1
    40     3    36    1
    41     4    37    1
    42     5    38    1
    43     6    39    1
    44     7    40    1
    45     8    41    1
    46     9    42    1
    47    10    43    1
    48    11    44    1
    49    12    45    1
    50    12    46    1
    51    13    47    1
    52    13    48    1
    53    14    49    1
    54    14    50    1
    55    15    51    1
    56    15    52    1
    57    16    53    1
    58    16    54    1
    59    17    55    1
    60    17    56    1
    61    18    57    1
    62    18    58    1
    63    26    59    1
    64    27    60    1
    65    28    61    1
    66    29    62    1
    67    30    63    1
@<TRIPOS>SUBSTRUCTURE
     1 <0>         1 TEMP              0 ****  ****    0 ROOT

