
##########                                Name:               *****
##########                    Molecular_Weight:             408.676
##########                DOCK_Rotatable_Bonds:                   6
##########                       Formal_Charge:              1.9998
##########                     HBond_Acceptors:                   6
##########                        HBond_Donors:                   3
##########                         Heavy_Atoms:                  27
##########                            HA_RMSDs:               0.450
##########                            HA_RMSDh:               0.450
##########                            HA_RMSDm:               0.450
##########                          Grid_Score:         -166.911530
##########                     Grid_vdw_energy:          -46.660233
##########                      Grid_es_energy:         -120.251297
##########           Internal_energy_repulsive:           19.385571

@<TRIPOS>MOLECULE
*****
 63 66 1 0 0
SMALL
USER_CHARGES


@<TRIPOS>ATOM
      1 C1         15.4357   -6.0627   66.9645 C.3     1  <0>        -0.0411
      2 N1         17.0545   -7.8138   67.4502 N.pl3   1  <0>        -0.3043
      3 S1         18.0566   -9.6117   69.3371 S.3     1  <0>         0.0374
      4 C2         16.8459   -6.3690   67.4395 C.3     1  <0>         0.0597
      5 N2         17.4839   -7.1315   69.4897 N.pl3   1  <0>        -0.1644
      6 S2         19.7175   -5.8285   71.9390 S.3     1  <0>        -0.0181
      7 C3         17.9127   -5.7192   66.5690 C.3     1  <0>        -0.0411
      8 N3         20.1479   -7.9077   73.3516 N.pl3   1  <0>        -0.1947
      9 C4         17.4081   -8.1666   68.6932 C.cat   1  <0>         0.2163
     10 N4         21.8274   -7.4066   71.7941 N.pl3   1  <0>        -0.2839
     11 C5         18.2900   -8.8026   70.8655 C.2     1  <0>         0.1434
     12 C6         17.0240   -5.8953   68.8887 C.3     1  <0>         0.0975
     13 C7         17.9300   -7.4397   70.7318 C.2     1  <0>         0.2141
     14 C8         18.0495   -6.4028   71.8289 C.3     1  <0>         0.1154
     15 C9         20.6505   -7.1446   72.3746 C.cat   1  <0>         0.2958
     16 C10        20.6579   -9.1302   73.9547 C.3     1  <0>         0.1487
     17 C11        21.5759   -8.9091   75.1532 C.3     1  <0>         0.0087
     18 C12        21.7821  -10.2409   75.8752 C.3     1  <0>        -0.0471
     19 C13        22.3882  -11.2854   74.9388 C.3     1  <0>        -0.0526
     20 C14        21.5649  -11.4794   73.6656 C.3     1  <0>        -0.0471
     21 C15        21.2101  -10.1637   72.9733 C.3     1  <0>         0.0087
     22 C16        22.2174   -7.1601   70.4073 C.3     1  <0>         0.0262
     23 C17        21.1250   -7.3305   69.3530 C.3     1  <0>        -0.0344
     24 C18        21.6817   -7.1489   67.9414 C.3     1  <0>        -0.0514
     25 C19        22.4236   -5.8211   67.7817 C.3     1  <0>        -0.0529
     26 C20        23.5371   -5.6826   68.8159 C.3     1  <0>        -0.0514
     27 C21        23.0094   -5.8643   70.2393 C.3     1  <0>        -0.0344
     28 H1         16.0841   -5.5572   69.3241 H       1  <0>         0.0673
     29 H2         17.7877   -5.1198   68.9555 H       1  <0>         0.0673
     30 H3         17.3922   -5.5630   71.6041 H       1  <0>         0.0621
     31 H4         17.7560   -6.8471   72.7799 H       1  <0>         0.0621
     32 H5         22.5310   -7.8256   72.3852 H       1  <0>         0.1523
     33 H6         22.9360   -7.9480   70.1833 H       1  <0>         0.0499
     34 H7         23.8549   -5.8797   70.9270 H       1  <0>         0.0283
     35 H8         22.3662   -5.0206   70.4889 H       1  <0>         0.0283
     36 H9         23.9809   -4.6909   68.7267 H       1  <0>         0.0266
     37 H10        24.3014   -6.4341   68.6201 H       1  <0>         0.0266
     38 H11        22.8587   -5.7747   66.7832 H       1  <0>         0.0265
     39 H12        21.7178   -4.9995   67.9037 H       1  <0>         0.0265
     40 H13        20.8552   -7.1773   67.2312 H       1  <0>         0.0266
     41 H14        22.3669   -7.9674   67.7217 H       1  <0>         0.0266
     42 H15        20.3460   -6.5872   69.5255 H       1  <0>         0.0283
     43 H16        20.6943   -8.3280   69.4419 H       1  <0>         0.0283
     44 H17        19.2716   -7.5827   73.7334 H       1  <0>         0.4389
     45 H18        19.7751   -9.6081   74.3788 H       1  <0>         0.1056
     46 H19        22.1072   -9.7597   72.5055 H       1  <0>         0.0329
     47 H20        20.4630  -10.3570   72.2028 H       1  <0>         0.0329
     48 H21        20.6406  -11.9941   73.9260 H       1  <0>         0.0267
     49 H22        22.1309  -12.1013   72.9714 H       1  <0>         0.0267
     50 H23        22.4444  -12.2375   75.4668 H       1  <0>         0.0265
     51 H24        23.3960  -10.9730   74.6650 H       1  <0>         0.0265
     52 H25        22.4541  -10.0875   76.7201 H       1  <0>         0.0267
     53 H26        20.8211  -10.6021   76.2422 H       1  <0>         0.0267
     54 H27        22.5380   -8.5270   74.8112 H       1  <0>         0.0329
     55 H28        21.1190   -8.1912   75.8348 H       1  <0>         0.0329
     56 H29        18.6520   -9.2681   71.7707 H       1  <0>         0.1770
     57 H30        16.9504   -8.4359   66.6614 H       1  <0>         0.1497
     58 H31        15.3163   -6.4021   65.9354 H       1  <0>         0.0251
     59 H32        15.2604   -4.9884   67.0157 H       1  <0>         0.0251
     60 H33        14.7172   -6.5785   67.6017 H       1  <0>         0.0251
     61 H34        17.7925   -6.0505   65.5379 H       1  <0>         0.0251
     62 H35        17.8088   -4.6354   66.6161 H       1  <0>         0.0251
     63 H36        18.9000   -6.0060   66.9299 H       1  <0>         0.0251
@<TRIPOS>BOND
     1     7    61    1
     2     1    58    1
     3     7    62    1
     4     7    63    1
     5     4     7    1
     6     2    57    1
     7     1    59    1
     8     1     4    1
     9     1    60    1
    10    25    38    1
    11     2     4    1
    12     4    12    1
    13     2     9    1
    14    24    40    1
    15    25    39    1
    16    24    25    1
    17    25    26    1
    18    24    41    1
    19    23    24    1
    20     3     9    1
    21     5     9    2
    22    12    29    1
    23    12    28    1
    24     5    12    1
    25    26    37    1
    26    26    36    1
    27    26    27    1
    28     3    11    1
    29     5    13    1
    30    23    42    1
    31    23    43    1
    32    22    23    1
    33    27    35    1
    34    22    27    1
    35    27    34    1
    36    22    33    1
    37    11    13    2
    38    13    14    1
    39    10    22    1
    40    11    56    1
    41    14    30    1
    42     6    14    1
    43    14    31    1
    44     6    15    1
    45    10    15    1
    46    10    32    1
    47    21    47    1
    48     8    15    2
    49    21    46    1
    50    20    21    1
    51    16    21    1
    52    20    49    1
    53     8    44    1
    54     8    16    1
    55    20    48    1
    56    19    20    1
    57    16    45    1
    58    16    17    1
    59    17    54    1
    60    19    51    1
    61    19    50    1
    62    18    19    1
    63    17    55    1
    64    17    18    1
    65    18    53    1
    66    18    52    1
@<TRIPOS>SUBSTRUCTURE
     1 <0>         1 TEMP              0 ****  ****    0 ROOT

