
##########                                Name:          443_1_3KL6
##########                    Molecular_Weight:             479.984
##########                DOCK_Rotatable_Bonds:                   7
##########                       Formal_Charge:        -9.99719e-05
##########                     HBond_Acceptors:                  10
##########                        HBond_Donors:                   2
##########                         Heavy_Atoms:                  32
##########                            HA_RMSDs:               0.110
##########                            HA_RMSDh:               0.110
##########                            HA_RMSDm:               0.110
##########                          Grid_Score:          -70.326370
##########                     Grid_vdw_energy:          -68.523720
##########                      Grid_es_energy:           -1.802651
##########           Internal_energy_repulsive:           21.618183

@<TRIPOS>MOLECULE
443_1_3KL6
 58 61 1 0 0
SMALL
USER_CHARGES


@<TRIPOS>ATOM
      1 C1          6.1292   -7.6435  -14.6437 C.ar    1  <0>        -0.0522
      2 C2          4.8122   -4.4835  -16.1115 C.ar    1  <0>        -0.0526
      3 C3          5.4131   -8.5584  -15.3442 C.ar    1  <0>        -0.0363
      4 C4          5.5320   -3.5672  -15.3970 C.ar    1  <0>        -0.0428
      5 C5          4.2722   -6.8345  -16.5838 C.ar    1  <0>        -0.0292
      6 C6          6.6591   -5.3024  -14.1753 C.ar    1  <0>        -0.0357
      7 C7         -0.5465   -9.0262   -7.4840 C.3     1  <0>        -0.0214
      8 C8         -1.5085  -10.0603  -11.6563 C.3     1  <0>        -0.0183
      9 C9          0.8410  -10.8348  -11.2387 C.3     1  <0>        -0.0183
     10 C10        -0.7908  -10.1845   -6.5092 C.3     1  <0>         0.0145
     11 C11         0.0813   -9.5520   -8.7795 C.3     1  <0>         0.0178
     12 C12        -1.4432  -10.5811  -13.1102 C.3     1  <0>         0.0164
     13 C13         0.9640  -11.2586  -12.7050 C.3     1  <0>         0.0164
     14 C14         1.8880   -9.2347  -16.4638 C.3     1  <0>         0.1052
     15 C15         4.9948   -5.8633  -15.8708 C.ar    1  <0>        -0.0160
     16 C16         5.9385   -6.2727  -14.8883 C.ar    1  <0>        -0.0164
     17 C17         4.4820   -8.1538  -16.3092 C.ar    1  <0>         0.0889
     18 C18         6.4587   -3.9723  -14.4130 C.ar    1  <0>         0.0416
     19 C19        -0.6197  -10.9664  -10.7863 C.3     1  <0>         0.0303
     20 C20        -1.4059  -11.4761   -8.5197 C.2     1  <0>         0.3025
     21 C21         1.8007   -9.9079  -15.0937 C.3     1  <0>         0.1506
     22 C22         0.3426   -9.9421  -14.6886 C.2     1  <0>         0.2458
     23 N1         -1.4845  -11.2789   -7.1903 N.am    1  <0>        -0.2992
     24 N2         -0.0293  -10.5609  -13.5434 N.am    1  <0>        -0.2992
     25 N3         -0.6842  -10.6816   -9.3401 N.am    1  <0>        -0.2824
     26 O1          2.5262   -9.1400  -14.1107 O.3     1  <0>        -0.3809
     27 O2         -2.0177  -12.4114   -8.9963 O.2     1  <0>        -0.2526
     28 O3         -0.4880   -9.3864  -15.3892 O.2     1  <0>        -0.2727
     29 O4          4.1335  -10.6108  -16.8979 O.2     1  <0>        -0.1693
     30 O5          3.4432   -8.8626  -18.5283 O.2     1  <0>        -0.1693
     31 S1          3.5387   -9.3414  -17.1908 S.o2    1  <0>        -0.0002
     32 Cl1         7.3543   -2.7941  -13.5001 Cl      1  <0>        -0.0835
     33 H1          6.8431   -7.9674  -13.9009 H       1  <0>         0.0624
     34 H2          4.1054   -4.1532  -16.8583 H       1  <0>         0.0624
     35 H3          5.5627   -9.6112  -15.1555 H       1  <0>         0.0637
     36 H4          5.3890   -2.5141  -15.5891 H       1  <0>         0.0632
     37 H5          3.5594   -6.5400  -17.3399 H       1  <0>         0.0643
     38 H6          7.3790   -5.6103  -13.4315 H       1  <0>         0.0638
     39 H7         -1.5050   -8.5394   -7.7168 H       1  <0>         0.0295
     40 H8          0.1352   -8.2986   -7.0196 H       1  <0>         0.0295
     41 H9         -1.1446   -9.0232  -11.6122 H       1  <0>         0.0298
     42 H10        -2.5461  -10.0911  -11.2927 H       1  <0>         0.0298
     43 H11         1.4767  -11.4817  -10.6162 H       1  <0>         0.0298
     44 H12         1.1647   -9.7890  -11.1315 H       1  <0>         0.0298
     45 H13         0.1751  -10.5483   -6.1291 H       1  <0>         0.0463
     46 H14        -1.4088   -9.8291   -5.6714 H       1  <0>         0.0463
     47 H15         0.1000   -8.7374   -9.5184 H       1  <0>         0.0466
     48 H16         1.1046   -9.8925   -8.5627 H       1  <0>         0.0466
     49 H17        -1.8353  -11.6078  -13.1585 H       1  <0>         0.0465
     50 H18        -2.0456   -9.9361  -13.7668 H       1  <0>         0.0465
     51 H19         1.9731  -11.0098  -13.0653 H       1  <0>         0.0465
     52 H20         0.7951  -12.3430  -12.7788 H       1  <0>         0.0465
     53 H21         1.1778   -9.7321  -17.1408 H       1  <0>         0.0535
     54 H22         1.6289   -8.1722  -16.3457 H       1  <0>         0.0535
     55 H23        -1.0081  -11.9858  -10.9273 H       1  <0>         0.0502
     56 H24         2.2302  -10.9191  -15.1500 H       1  <0>         0.0707
     57 H25        -2.0403  -11.9064   -6.6451 H       1  <0>         0.1502
     58 H26         2.4875   -9.5827  -13.2709 H       1  <0>         0.2105
@<TRIPOS>BOND
     1     1     3   ar
     2     1    16   ar
     3     2     4   ar
     4     2    15   ar
     5     3    17   ar
     6     4    18   ar
     7     5    15   ar
     8     5    17   ar
     9     6    16   ar
    10     6    18   ar
    11     7    10    1
    12     7    11    1
    13     8    12    1
    14     8    19    1
    15     9    13    1
    16     9    19    1
    17    10    23    1
    18    11    25    1
    19    12    24    1
    20    13    24    1
    21    14    21    1
    22    14    31    1
    23    15    16   ar
    24    17    31    1
    25    18    32    1
    26    19    25    1
    27    20    23   am
    28    20    25   am
    29    20    27    2
    30    21    22    1
    31    21    26    1
    32    22    24   am
    33    22    28    2
    34    29    31    2
    35    30    31    2
    36     1    33    1
    37     2    34    1
    38     3    35    1
    39     4    36    1
    40     5    37    1
    41     6    38    1
    42     7    39    1
    43     7    40    1
    44     8    41    1
    45     8    42    1
    46     9    43    1
    47     9    44    1
    48    10    45    1
    49    10    46    1
    50    11    47    1
    51    11    48    1
    52    12    49    1
    53    12    50    1
    54    13    51    1
    55    13    52    1
    56    14    53    1
    57    14    54    1
    58    19    55    1
    59    21    56    1
    60    23    57    1
    61    26    58    1
@<TRIPOS>SUBSTRUCTURE
     1 <0>         1 TEMP              0 ****  ****    0 ROOT

