Z1907784975
 OpenBabel06102417492D

 24 26  0  0  0  0  0  0  0  0999 V2000
   32.0561   -9.7859    0.0000 C   0  0  0  0  0  0  0  0  0  0  0  0
   32.0561  -11.2859    0.0000 C   0  0  0  0  0  0  0  0  0  0  0  0
   33.2696  -12.1676    0.0000 C   0  0  0  0  0  0  0  0  0  0  0  0
   32.8061  -13.5942    0.0000 S   0  0  0  0  0  0  0  0  0  0  0  0
   31.3061  -13.5942    0.0000 C   0  0  0  0  0  0  0  0  0  0  0  0
   30.8426  -12.1676    0.0000 C   0  0  0  0  0  0  0  0  0  0  0  0
   30.4244  -14.8076    0.0000 C   0  0  0  0  0  0  0  0  0  0  0  0
   31.0346  -16.1780    0.0000 O   0  0  0  0  0  0  0  0  0  0  0  0
   28.9326  -14.6509    0.0000 N   0  0  0  0  0  0  0  0  0  0  0  0
   28.0510  -15.8644    0.0000 C   0  0  0  0  0  0  0  0  0  0  0  0
   28.6611  -17.2348    0.0000 C   0  0  0  0  0  0  0  0  0  0  0  0
   27.7793  -18.4484    0.0000 C   0  0  0  0  0  0  0  0  0  0  0  0
   26.2877  -18.2915    0.0000 C   0  0  0  0  0  0  0  0  0  0  0  0
   25.6775  -16.9211    0.0000 C   0  0  0  0  0  0  0  0  0  0  0  0
   24.1856  -16.7644    0.0000 N   0  0  0  0  0  0  0  0  0  0  0  0
   23.1820  -17.8791    0.0000 C   0  0  0  0  0  0  0  0  0  0  0  0
   21.8116  -17.2689    0.0000 C   0  0  0  0  0  0  0  0  0  0  0  0
   21.9685  -15.7773    0.0000 N   0  0  0  0  0  0  0  0  0  0  0  0
   23.4356  -15.4653    0.0000 C   0  0  0  0  0  0  0  0  0  0  0  0
   24.0458  -14.0951    0.0000 O   0  0  0  0  0  0  0  0  0  0  0  0
   26.5591  -15.7076    0.0000 C   0  0  0  0  0  0  0  0  0  0  0  0
   25.9491  -14.3373    0.0000 C   0  0  0  0  0  0  0  0  0  0  0  0
   34.6961  -11.7039    0.0000 C   0  0  0  0  0  0  0  0  0  0  0  0
   35.0080  -10.2368    0.0000 O   0  0  0  0  0  0  0  0  0  0  0  0
  1  2  1  0  0  0  0
  2  3  2  0  0  0  0
  2  6  1  0  0  0  0
  3  4  1  0  0  0  0
  3 23  1  0  0  0  0
  4  5  1  0  0  0  0
  5  6  2  0  0  0  0
  5  7  1  0  0  0  0
  7  8  2  0  0  0  0
  7  9  1  0  0  0  0
  9 10  1  0  0  0  0
 10 11  2  0  0  0  0
 10 21  1  0  0  0  0
 11 12  1  0  0  0  0
 12 13  2  0  0  0  0
 13 14  1  0  0  0  0
 14 15  1  0  0  0  0
 14 21  2  0  0  0  0
 15 16  1  0  0  0  0
 15 19  1  0  0  0  0
 16 17  1  0  0  0  0
 17 18  1  0  0  0  0
 18 19  1  0  0  0  0
 19 20  2  0  0  0  0
 21 22  1  0  0  0  0
 23 24  2  0  0  0  0
M  END
$$$$
