Z2732986066
 OpenBabel06102417482D

 16 18  0  0  0  0  0  0  0  0999 V2000
    9.3131  -17.8874    0.0000 C   0  0  0  0  0  0  0  0  0  0  0  0
    8.8495  -16.4608    0.0000 N   0  0  0  0  0  0  0  0  0  0  0  0
    7.4229  -15.9973    0.0000 N   0  0  0  0  0  0  0  0  0  0  0  0
    7.4229  -14.4973    0.0000 C   0  0  0  0  0  0  0  0  0  0  0  0
    8.8495  -14.0336    0.0000 C   0  0  0  0  0  0  0  0  0  0  0  0
    9.3131  -12.6072    0.0000 N   0  0  0  0  0  0  0  0  0  0  0  0
    9.7311  -15.2473    0.0000 C   0  0  0  0  0  0  0  0  0  0  0  0
   11.2310  -15.2473    0.0000 C   0  0  0  0  0  0  0  0  0  0  0  0
   12.1128  -14.0336    0.0000 C   0  0  0  0  0  0  0  0  0  0  0  0
   13.5394  -14.4973    0.0000 C   0  0  0  0  0  0  0  0  0  0  0  0
   14.8385  -13.7475    0.0000 C   0  0  0  0  0  0  0  0  0  0  0  0
   16.1375  -14.4973    0.0000 C   0  0  0  0  0  0  0  0  0  0  0  0
   16.1375  -15.9973    0.0000 C   0  0  0  0  0  0  0  0  0  0  0  0
   14.8385  -16.7473    0.0000 C   0  0  0  0  0  0  0  0  0  0  0  0
   13.5394  -15.9973    0.0000 C   0  0  0  0  0  0  0  0  0  0  0  0
   12.1128  -16.4608    0.0000 N   0  0  0  0  0  0  0  0  0  0  0  0
  1  2  1  0  0  0  0
  2  3  1  0  0  0  0
  2  7  1  0  0  0  0
  3  4  2  0  0  0  0
  4  5  1  0  0  0  0
  5  6  1  0  0  0  0
  5  7  2  0  0  0  0
  7  8  1  0  0  0  0
  8  9  2  0  0  0  0
  8 16  1  0  0  0  0
  9 10  1  0  0  0  0
 10 11  2  0  0  0  0
 10 15  1  0  0  0  0
 11 12  1  0  0  0  0
 12 13  2  0  0  0  0
 13 14  1  0  0  0  0
 14 15  2  0  0  0  0
 15 16  1  0  0  0  0
M  END
$$$$
