Z3343635604
 OpenBabel06102417462D

 16 17  0  0  0  0  0  0  0  0999 V2000
   23.0690  -11.1250    0.0000 C   0  0  0  0  0  0  0  0  0  0  0  0
   21.7699  -10.3750    0.0000 C   0  0  0  0  0  0  0  0  0  0  0  0
   21.7699   -8.8750    0.0000 C   0  0  0  0  0  0  0  0  0  0  0  0
   20.4710  -11.1250    0.0000 S   0  0  0  0  0  0  0  0  0  0  0  0
   19.1719  -10.3750    0.0000 C   0  0  0  0  0  0  0  0  0  0  0  0
   17.8728  -11.1250    0.0000 N   0  0  0  0  0  0  0  0  0  0  0  0
   17.8728  -12.6250    0.0000 C   0  0  0  0  0  0  0  0  0  0  0  0
   16.5739  -13.3750    0.0000 N   0  0  0  0  0  0  0  0  0  0  0  0
   15.2748  -12.6250    0.0000 C   0  0  0  0  0  0  0  0  0  0  0  0
   15.2748  -11.1250    0.0000 C   0  0  0  0  0  0  0  0  0  0  0  0
   13.8483  -10.6615    0.0000 N   0  0  0  0  0  0  0  0  0  0  0  0
   13.3847   -9.2350    0.0000 C   0  0  0  0  0  0  0  0  0  0  0  0
   12.9665  -11.8750    0.0000 N   0  0  0  0  0  0  0  0  0  0  0  0
   13.8483  -13.0886    0.0000 C   0  0  0  0  0  0  0  0  0  0  0  0
   16.5739  -10.3750    0.0000 C   0  0  0  0  0  0  0  0  0  0  0  0
   16.5739   -8.8750    0.0000 O   0  0  0  0  0  0  0  0  0  0  0  0
  1  2  1  0  0  0  0
  2  3  1  0  0  0  0
  2  4  1  0  0  0  0
  4  5  1  0  0  0  0
  5  6  1  0  0  0  0
  6  7  1  0  0  0  0
  6 15  1  0  0  0  0
  7  8  2  0  0  0  0
  8  9  1  0  0  0  0
  9 10  2  0  0  0  0
  9 14  1  0  0  0  0
 10 11  1  0  0  0  0
 10 15  1  0  0  0  0
 11 12  1  0  0  0  0
 11 13  1  0  0  0  0
 13 14  2  0  0  0  0
 15 16  2  0  0  0  0
M  END
$$$$
