Z4324535763
 OpenBabel06102417482D

 16 18  0  0  0  0  0  0  0  0999 V2000
   25.2906  -10.3106    0.0000 O   0  0  0  0  0  0  0  0  0  0  0  0
   23.9917  -11.0606    0.0000 C   0  0  0  0  0  0  0  0  0  0  0  0
   22.6926  -10.3106    0.0000 N   0  0  0  0  0  0  0  0  0  0  0  0
   22.6926   -8.8106    0.0000 C   0  0  0  0  0  0  0  0  0  0  0  0
   21.6318   -7.7500    0.0000 C   0  0  0  0  0  0  0  0  0  0  0  0
   22.6926   -6.6893    0.0000 S   0  0  0  0  0  0  0  0  0  0  0  0
   23.7533   -7.7500    0.0000 C   0  0  0  0  0  0  0  0  0  0  0  0
   23.9917  -12.5607    0.0000 C   0  0  0  0  0  0  0  0  0  0  0  0
   25.2906  -13.3107    0.0000 N   0  0  0  0  0  0  0  0  0  0  0  0
   25.2906  -14.8107    0.0000 C   0  0  0  0  0  0  0  0  0  0  0  0
   23.9917  -15.5607    0.0000 N   0  0  0  0  0  0  0  0  0  0  0  0
   22.6926  -14.8107    0.0000 N   0  0  0  0  0  0  0  0  0  0  0  0
   21.2660  -15.2741    0.0000 C   0  0  0  0  0  0  0  0  0  0  0  0
   20.3843  -14.0607    0.0000 C   0  0  0  0  0  0  0  0  0  0  0  0
   21.2660  -12.8472    0.0000 C   0  0  0  0  0  0  0  0  0  0  0  0
   22.6926  -13.3107    0.0000 C   0  0  0  0  0  0  0  0  0  0  0  0
  1  2  2  0  0  0  0
  2  3  1  0  0  0  0
  2  8  1  0  0  0  0
  3  4  1  0  0  0  0
  4  5  1  0  0  0  0
  4  7  1  0  0  0  0
  5  6  1  0  0  0  0
  6  7  1  0  0  0  0
  8  9  2  0  0  0  0
  8 16  1  0  0  0  0
  9 10  1  0  0  0  0
 10 11  2  0  0  0  0
 11 12  1  0  0  0  0
 12 13  1  0  0  0  0
 12 16  1  0  0  0  0
 13 14  2  0  0  0  0
 14 15  1  0  0  0  0
 15 16  2  0  0  0  0
M  END
$$$$
