Z5185631889
 OpenBabel06102417502D

 21 22  0  0  0  0  0  0  0  0999 V2000
   25.8656   -8.1288    0.0000 C   0  0  0  0  0  0  0  0  0  0  0  0
   24.5666   -8.8789    0.0000 N   0  0  0  0  0  0  0  0  0  0  0  0
   23.2675   -8.1288    0.0000 C   0  0  0  0  0  0  0  0  0  0  0  0
   24.5666  -10.3789    0.0000 C   0  0  0  0  0  0  0  0  0  0  0  0
   25.8656  -11.1289    0.0000 C   0  0  0  0  0  0  0  0  0  0  0  0
   25.8656  -12.6289    0.0000 N   0  0  0  0  0  0  0  0  0  0  0  0
   24.5666  -13.3789    0.0000 C   0  0  0  0  0  0  0  0  0  0  0  0
   23.2675  -12.6289    0.0000 C   0  0  0  0  0  0  0  0  0  0  0  0
   21.9686  -13.3789    0.0000 N   0  0  0  0  0  0  0  0  0  0  0  0
   21.9686  -14.8790    0.0000 C   0  0  0  0  0  0  0  0  0  0  0  0
   23.2675  -15.6290    0.0000 O   0  0  0  0  0  0  0  0  0  0  0  0
   20.6697  -15.6290    0.0000 C   0  0  0  0  0  0  0  0  0  0  0  0
   20.6697  -17.1290    0.0000 C   0  0  0  0  0  0  0  0  0  0  0  0
   19.3705  -17.8790    0.0000 C   0  0  0  0  0  0  0  0  0  0  0  0
   18.0716  -17.1290    0.0000 C   0  0  0  0  0  0  0  0  0  0  0  0
   16.7725  -17.8790    0.0000 C   0  0  0  0  0  0  0  0  0  0  0  0
   16.7725  -19.3791    0.0000 O   0  0  0  0  0  0  0  0  0  0  0  0
   18.0716  -15.6290    0.0000 C   0  0  0  0  0  0  0  0  0  0  0  0
   19.3705  -14.8790    0.0000 C   0  0  0  0  0  0  0  0  0  0  0  0
   19.3705  -13.3789    0.0000 O   0  0  0  0  0  0  0  0  0  0  0  0
   23.2675  -11.1289    0.0000 C   0  0  0  0  0  0  0  0  0  0  0  0
  1  2  1  0  0  0  0
  2  3  1  0  0  0  0
  2  4  1  0  0  0  0
  4  5  2  0  0  0  0
  4 21  1  0  0  0  0
  5  6  1  0  0  0  0
  6  7  2  0  0  0  0
  7  8  1  0  0  0  0
  8  9  1  0  0  0  0
  8 21  2  0  0  0  0
  9 10  1  0  0  0  0
 10 11  2  0  0  0  0
 10 12  1  0  0  0  0
 12 13  2  0  0  0  0
 12 19  1  0  0  0  0
 13 14  1  0  0  0  0
 14 15  2  0  0  0  0
 15 16  1  0  0  0  0
 15 18  1  0  0  0  0
 16 17  2  0  0  0  0
 18 19  2  0  0  0  0
 19 20  1  0  0  0  0
M  END
$$$$
