Z5185631911
 OpenBabel06102417502D

 27 30  0  0  0  0  0  0  0  0999 V2000
   21.9682  -13.6146    0.0000 O   0  0  0  0  0  0  0  0  0  0  0  0
   23.2671  -14.3646    0.0000 C   0  0  0  0  0  0  0  0  0  0  0  0
   24.5661  -13.6146    0.0000 C   0  0  0  0  0  0  0  0  0  0  0  0
   25.8651  -14.3646    0.0000 C   0  0  0  0  0  0  0  0  0  0  0  0
   27.1641  -13.6146    0.0000 C   0  0  0  0  0  0  0  0  0  0  0  0
   27.1641  -12.1146    0.0000 N   0  0  0  0  0  0  0  0  0  0  0  0
   28.4632  -11.3646    0.0000 C   0  0  0  0  0  0  0  0  0  0  0  0
   29.7623  -12.1146    0.0000 O   0  0  0  0  0  0  0  0  0  0  0  0
   28.4632   -9.8647    0.0000 C   0  0  0  0  0  0  0  0  0  0  0  0
   27.2498   -8.9830    0.0000 C   0  0  0  0  0  0  0  0  0  0  0  0
   25.7825   -9.2950    0.0000 C   0  0  0  0  0  0  0  0  0  0  0  0
   24.7789   -8.1803    0.0000 C   0  0  0  0  0  0  0  0  0  0  0  0
   25.2423   -6.7536    0.0000 C   0  0  0  0  0  0  0  0  0  0  0  0
   26.7096   -6.4417    0.0000 C   0  0  0  0  0  0  0  0  0  0  0  0
   27.7132   -7.5565    0.0000 N   0  0  0  0  0  0  0  0  0  0  0  0
   29.2132   -7.5565    0.0000 C   0  0  0  0  0  0  0  0  0  0  0  0
   30.0949   -6.3430    0.0000 C   0  0  0  0  0  0  0  0  0  0  0  0
   31.5867   -6.4997    0.0000 O   0  0  0  0  0  0  0  0  0  0  0  0
   29.6769   -8.9830    0.0000 C   0  0  0  0  0  0  0  0  0  0  0  0
   28.4632  -14.3646    0.0000 C   0  0  0  0  0  0  0  0  0  0  0  0
   28.4632  -15.8646    0.0000 C   0  0  0  0  0  0  0  0  0  0  0  0
   27.1641  -16.6146    0.0000 C   0  0  0  0  0  0  0  0  0  0  0  0
   27.1641  -18.1146    0.0000 C   0  0  0  0  0  0  0  0  0  0  0  0
   27.1641  -19.6146    0.0000 N   0  0  0  0  0  0  0  0  0  0  0  0
   25.8651  -15.8646    0.0000 C   0  0  0  0  0  0  0  0  0  0  0  0
   24.5661  -16.6146    0.0000 C   0  0  0  0  0  0  0  0  0  0  0  0
   23.2671  -15.8646    0.0000 C   0  0  0  0  0  0  0  0  0  0  0  0
  1  2  1  0  0  0  0
  2  3  2  0  0  0  0
  2 27  1  0  0  0  0
  3  4  1  0  0  0  0
  4  5  2  0  0  0  0
  4 25  1  0  0  0  0
  5  6  1  0  0  0  0
  5 20  1  0  0  0  0
  6  7  1  0  0  0  0
  7  8  2  0  0  0  0
  7  9  1  0  0  0  0
  9 10  2  0  0  0  0
  9 19  1  0  0  0  0
 10 11  1  0  0  0  0
 10 15  1  0  0  0  0
 11 12  1  0  0  0  0
 12 13  1  0  0  0  0
 13 14  1  0  0  0  0
 14 15  1  0  0  0  0
 15 16  1  0  0  0  0
 16 17  1  0  0  0  0
 16 19  2  0  0  0  0
 17 18  2  0  0  0  0
 20 21  2  0  0  0  0
 21 22  1  0  0  0  0
 22 23  1  0  0  0  0
 22 25  2  0  0  0  0
 23 24  3  0  0  0  0
 25 26  1  0  0  0  0
 26 27  2  0  0  0  0
M  END
$$$$
