Z5348530683
 OpenBabel06102417452D

 16 18  0  0  0  0  0  0  0  0999 V2000
   12.7465  -12.3001    0.0000 O   0  0  0  0  0  0  0  0  0  0  0  0
   11.4475  -13.0501    0.0000 C   0  0  0  0  0  0  0  0  0  0  0  0
   11.4475  -14.5502    0.0000 C   0  0  0  0  0  0  0  0  0  0  0  0
   10.1484  -15.3002    0.0000 C   0  0  0  0  0  0  0  0  0  0  0  0
    8.8495  -14.5502    0.0000 C   0  0  0  0  0  0  0  0  0  0  0  0
    8.8495  -13.0501    0.0000 C   0  0  0  0  0  0  0  0  0  0  0  0
   10.1484  -12.3001    0.0000 C   0  0  0  0  0  0  0  0  0  0  0  0
   10.1484  -10.8001    0.0000 C   0  0  0  0  0  0  0  0  0  0  0  0
    8.8495  -10.0501    0.0000 C   0  0  0  0  0  0  0  0  0  0  0  0
    7.4229  -10.5135    0.0000 C   0  0  0  0  0  0  0  0  0  0  0  0
    6.5412   -9.3000    0.0000 C   0  0  0  0  0  0  0  0  0  0  0  0
    7.4229   -8.0866    0.0000 N   0  0  0  0  0  0  0  0  0  0  0  0
    8.8495   -8.5500    0.0000 C   0  0  0  0  0  0  0  0  0  0  0  0
   10.1484   -7.8000    0.0000 N   0  0  0  0  0  0  0  0  0  0  0  0
   11.4475   -8.5500    0.0000 C   0  0  0  0  0  0  0  0  0  0  0  0
   11.4475  -10.0501    0.0000 N   0  0  0  0  0  0  0  0  0  0  0  0
  1  2  1  0  0  0  0
  2  3  2  0  0  0  0
  2  7  1  0  0  0  0
  3  4  1  0  0  0  0
  4  5  2  0  0  0  0
  5  6  1  0  0  0  0
  6  7  2  0  0  0  0
  7  8  1  0  0  0  0
  8  9  2  0  0  0  0
  8 16  1  0  0  0  0
  9 10  1  0  0  0  0
  9 13  1  0  0  0  0
 10 11  2  0  0  0  0
 11 12  1  0  0  0  0
 12 13  1  0  0  0  0
 13 14  2  0  0  0  0
 14 15  1  0  0  0  0
 15 16  2  0  0  0  0
M  END
$$$$
