Z5348530222
 OpenBabel06102417492D

 15 17  0  0  0  0  0  0  0  0999 V2000
    5.0412  -11.4381    0.0000 C   0  0  0  0  0  0  0  0  0  0  0  0
    6.5410  -11.4381    0.0000 C   0  0  0  0  0  0  0  0  0  0  0  0
    7.4229  -10.2244    0.0000 N   0  0  0  0  0  0  0  0  0  0  0  0
    8.8495  -10.6881    0.0000 C   0  0  0  0  0  0  0  0  0  0  0  0
   10.1486   -9.9382    0.0000 N   0  0  0  0  0  0  0  0  0  0  0  0
   11.4475  -10.6881    0.0000 C   0  0  0  0  0  0  0  0  0  0  0  0
   11.4475  -12.1881    0.0000 C   0  0  0  0  0  0  0  0  0  0  0  0
   10.1486  -12.9381    0.0000 C   0  0  0  0  0  0  0  0  0  0  0  0
    8.8495  -12.1881    0.0000 C   0  0  0  0  0  0  0  0  0  0  0  0
    7.4229  -12.6515    0.0000 N   0  0  0  0  0  0  0  0  0  0  0  0
   12.7466  -12.9381    0.0000 C   0  0  0  0  0  0  0  0  0  0  0  0
   14.1170  -12.3281    0.0000 N   0  0  0  0  0  0  0  0  0  0  0  0
   15.1207  -13.4427    0.0000 N   0  0  0  0  0  0  0  0  0  0  0  0
   14.3707  -14.7418    0.0000 N   0  0  0  0  0  0  0  0  0  0  0  0
   12.9035  -14.4299    0.0000 C   0  0  0  0  0  0  0  0  0  0  0  0
  1  2  1  0  0  0  0
  2  3  2  0  0  0  0
  2 10  1  0  0  0  0
  3  4  1  0  0  0  0
  4  5  2  0  0  0  0
  4  9  1  0  0  0  0
  5  6  1  0  0  0  0
  6  7  2  0  0  0  0
  7  8  1  0  0  0  0
  7 11  1  0  0  0  0
  8  9  2  0  0  0  0
  9 10  1  0  0  0  0
 11 12  2  0  0  0  0
 11 15  1  0  0  0  0
 12 13  1  0  0  0  0
 13 14  1  0  0  0  0
 14 15  2  0  0  0  0
M  END
$$$$
