Z5348530741
 OpenBabel06102417462D

 16 17  0  0  0  0  0  0  0  0999 V2000
    7.4228  -11.6132    0.0000 Cl  0  0  0  0  0  0  0  0  0  0  0  0
    8.7218  -12.3632    0.0000 C   0  0  0  0  0  0  0  0  0  0  0  0
    8.7218  -13.8632    0.0000 C   0  0  0  0  0  0  0  0  0  0  0  0
   10.0209  -11.6132    0.0000 C   0  0  0  0  0  0  0  0  0  0  0  0
   11.3198  -12.3632    0.0000 O   0  0  0  0  0  0  0  0  0  0  0  0
   12.6189  -11.6132    0.0000 C   0  0  0  0  0  0  0  0  0  0  0  0
   12.6189  -10.1131    0.0000 O   0  0  0  0  0  0  0  0  0  0  0  0
   13.9180  -12.3632    0.0000 C   0  0  0  0  0  0  0  0  0  0  0  0
   15.2171  -11.6132    0.0000 C   0  0  0  0  0  0  0  0  0  0  0  0
   16.5162  -12.3632    0.0000 N   0  0  0  0  0  0  0  0  0  0  0  0
   16.5162  -13.8632    0.0000 C   0  0  0  0  0  0  0  0  0  0  0  0
   17.6308  -14.8668    0.0000 N   0  0  0  0  0  0  0  0  0  0  0  0
   17.0208  -16.2370    0.0000 C   0  0  0  0  0  0  0  0  0  0  0  0
   15.5289  -16.0803    0.0000 C   0  0  0  0  0  0  0  0  0  0  0  0
   15.2171  -14.6132    0.0000 C   0  0  0  0  0  0  0  0  0  0  0  0
   13.9180  -13.8632    0.0000 C   0  0  0  0  0  0  0  0  0  0  0  0
  1  2  1  0  0  0  0
  2  3  2  0  0  0  0
  2  4  1  0  0  0  0
  4  5  1  0  0  0  0
  5  6  1  0  0  0  0
  6  7  2  0  0  0  0
  6  8  1  0  0  0  0
  8  9  2  0  0  0  0
  8 16  1  0  0  0  0
  9 10  1  0  0  0  0
 10 11  2  0  0  0  0
 11 12  1  0  0  0  0
 11 15  1  0  0  0  0
 12 13  1  0  0  0  0
 13 14  2  0  0  0  0
 14 15  1  0  0  0  0
 15 16  2  0  0  0  0
M  END
$$$$
