Z5348530626
 OpenBabel06102417472D

 16 17  0  0  0  0  0  0  0  0999 V2000
   16.7850   -8.8120    0.0000 Br  0  0  0  0  0  0  0  0  0  0  0  0
   16.7850  -10.3120    0.0000 C   0  0  0  0  0  0  0  0  0  0  0  0
   17.9985  -11.1937    0.0000 C   0  0  0  0  0  0  0  0  0  0  0  0
   17.5350  -12.6202    0.0000 N   0  0  0  0  0  0  0  0  0  0  0  0
   16.0350  -12.6202    0.0000 C   0  0  0  0  0  0  0  0  0  0  0  0
   15.1533  -13.8337    0.0000 C   0  0  0  0  0  0  0  0  0  0  0  0
   13.6615  -13.6770    0.0000 N   0  0  0  0  0  0  0  0  0  0  0  0
   12.7798  -14.8904    0.0000 C   0  0  0  0  0  0  0  0  0  0  0  0
   13.3900  -16.2608    0.0000 C   0  0  0  0  0  0  0  0  0  0  0  0
   12.5082  -17.4745    0.0000 N   0  0  0  0  0  0  0  0  0  0  0  0
   11.0165  -17.3176    0.0000 C   0  0  0  0  0  0  0  0  0  0  0  0
   10.4063  -15.9472    0.0000 C   0  0  0  0  0  0  0  0  0  0  0  0
   11.2880  -14.7337    0.0000 N   0  0  0  0  0  0  0  0  0  0  0  0
    8.9145  -15.7905    0.0000 C   0  0  0  0  0  0  0  0  0  0  0  0
    7.4228  -15.6337    0.0000 N   0  0  0  0  0  0  0  0  0  0  0  0
   15.5715  -11.1937    0.0000 C   0  0  0  0  0  0  0  0  0  0  0  0
  1  2  1  0  0  0  0
  2  3  2  0  0  0  0
  2 16  1  0  0  0  0
  3  4  1  0  0  0  0
  4  5  1  0  0  0  0
  5  6  1  0  0  0  0
  5 16  2  0  0  0  0
  6  7  1  0  0  0  0
  7  8  1  0  0  0  0
  8  9  2  0  0  0  0
  8 13  1  0  0  0  0
  9 10  1  0  0  0  0
 10 11  2  0  0  0  0
 11 12  1  0  0  0  0
 12 13  2  0  0  0  0
 12 14  1  0  0  0  0
 14 15  3  0  0  0  0
M  END
$$$$
