Z795161988
 OpenBabel06102417522D

 24 26  0  0  0  0  0  0  0  0999 V2000
   10.1205  -14.0006    0.0000 Br  0  0  0  0  0  0  0  0  0  0  0  0
   11.4194  -13.2506    0.0000 C   0  0  0  0  0  0  0  0  0  0  0  0
   11.4194  -11.7505    0.0000 C   0  0  0  0  0  0  0  0  0  0  0  0
   12.7186  -11.0005    0.0000 C   0  0  0  0  0  0  0  0  0  0  0  0
   14.0175  -11.7505    0.0000 C   0  0  0  0  0  0  0  0  0  0  0  0
   15.3164  -11.0005    0.0000 N   0  0  0  0  0  0  0  0  0  0  0  0
   16.6155  -11.7505    0.0000 C   0  0  0  0  0  0  0  0  0  0  0  0
   16.6155  -13.2506    0.0000 O   0  0  0  0  0  0  0  0  0  0  0  0
   17.9145  -11.0005    0.0000 C   0  0  0  0  0  0  0  0  0  0  0  0
   19.2136  -11.7505    0.0000 O   0  0  0  0  0  0  0  0  0  0  0  0
   20.5127  -11.0005    0.0000 C   0  0  0  0  0  0  0  0  0  0  0  0
   20.5127   -9.5005    0.0000 O   0  0  0  0  0  0  0  0  0  0  0  0
   21.8118  -11.7505    0.0000 C   0  0  0  0  0  0  0  0  0  0  0  0
   23.1820  -11.1405    0.0000 C   0  0  0  0  0  0  0  0  0  0  0  0
   24.1858  -12.2553    0.0000 C   0  0  0  0  0  0  0  0  0  0  0  0
   23.4358  -13.5542    0.0000 N   0  0  0  0  0  0  0  0  0  0  0  0
   21.9685  -13.2424    0.0000 N   0  0  0  0  0  0  0  0  0  0  0  0
   25.6777  -12.0985    0.0000 C   0  0  0  0  0  0  0  0  0  0  0  0
   26.4277  -10.7994    0.0000 C   0  0  0  0  0  0  0  0  0  0  0  0
   27.8948  -11.1113    0.0000 O   0  0  0  0  0  0  0  0  0  0  0  0
   28.0517  -12.6031    0.0000 C   0  0  0  0  0  0  0  0  0  0  0  0
   26.6813  -13.2131    0.0000 C   0  0  0  0  0  0  0  0  0  0  0  0
   14.0175  -13.2506    0.0000 C   0  0  0  0  0  0  0  0  0  0  0  0
   12.7186  -14.0006    0.0000 C   0  0  0  0  0  0  0  0  0  0  0  0
  1  2  1  0  0  0  0
  2  3  2  0  0  0  0
  2 24  1  0  0  0  0
  3  4  1  0  0  0  0
  4  5  2  0  0  0  0
  5  6  1  0  0  0  0
  5 23  1  0  0  0  0
  6  7  1  0  0  0  0
  7  8  2  0  0  0  0
  7  9  1  0  0  0  0
  9 10  1  0  0  0  0
 10 11  1  0  0  0  0
 11 12  2  0  0  0  0
 11 13  1  0  0  0  0
 13 14  2  0  0  0  0
 13 17  1  0  0  0  0
 14 15  1  0  0  0  0
 15 16  2  0  0  0  0
 15 18  1  0  0  0  0
 16 17  1  0  0  0  0
 18 19  2  0  0  0  0
 18 22  1  0  0  0  0
 19 20  1  0  0  0  0
 20 21  1  0  0  0  0
 21 22  2  0  0  0  0
 23 24  2  0  0  0  0
M  END
$$$$
