ZINC000475239213
     RDKit          3D

 28 31  0  0  0  0  0  0  0  0999 V2000
   -6.6924    0.7891    1.9654 C   0  0  0  0  0  0  0  0  0  0  0  0
   -6.2847   -0.2282    1.0065 N   0  0  0  0  0  0  0  0  0  0  0  0
   -7.0904   -1.2060    0.5371 C   0  0  0  0  0  0  0  0  0  0  0  0
   -8.4186   -1.4109    0.8765 O   0  0  0  0  0  0  0  0  0  0  0  0
   -6.3510   -1.9506   -0.3313 N   0  0  0  0  0  0  0  0  0  0  0  0
   -5.1025   -1.4468   -0.4041 C   0  0  0  0  0  0  0  0  0  0  0  0
   -3.9870   -1.7796   -1.0888 N   0  0  0  0  0  0  0  0  0  0  0  0
   -2.8423   -1.1039   -0.9864 C   0  0  0  0  0  0  0  0  0  0  0  0
   -2.7750   -0.0161   -0.1510 C   0  0  0  0  0  0  0  0  0  0  0  0
   -1.5324    0.7397   -0.0221 C   0  0  0  0  0  0  0  0  0  0  0  0
   -1.5782    2.0966    0.2437 C   0  0  0  0  0  0  0  0  0  0  0  0
   -0.4094    2.8214    0.3677 C   0  0  0  0  0  0  0  0  0  0  0  0
    0.8155    2.1965    0.2272 C   0  0  0  0  0  0  0  0  0  0  0  0
    0.8725    0.8453   -0.0377 C   0  0  0  0  0  0  0  0  0  0  0  0
    2.1628    0.1448   -0.1941 C   0  0  0  0  0  0  0  0  0  0  0  0
    2.1571   -1.0891   -0.4364 O   0  0  0  0  0  0  0  0  0  0  0  0
    3.3958    0.7975   -0.0839 N   0  0  0  0  0  0  0  0  0  0  0  0
    4.6471    0.1448   -0.2305 C   0  0  0  0  0  0  0  0  0  0  0  0
    4.7192   -1.2034   -0.4967 C   0  0  0  0  0  0  0  0  0  0  0  0
    5.9620   -1.8213   -0.6365 C   0  0  0  0  0  0  0  0  0  0  0  0
    7.1214   -1.0896   -0.5097 C   0  0  0  0  0  0  0  0  0  0  0  0
    7.0638    0.2541   -0.2445 C   0  0  0  0  0  0  0  0  0  0  0  0
    8.2968    0.9705   -0.1218 C   0  0  0  0  0  0  0  0  0  0  0  0
    9.2913    1.5520   -0.0337 N   0  0  0  0  0  0  0  0  0  0  0  0
    5.8264    0.8453   -0.1100 C   0  0  0  0  0  0  0  0  0  0  0  0
   -0.3041    0.1611   -0.1537 C   0  0  0  0  0  0  0  0  0  0  0  0
   -3.8854    0.3404    0.5503 C   0  0  0  0  0  0  0  0  0  0  0  0
   -5.0782   -0.3536    0.4517 C   0  0  0  0  0  0  0  0  0  0  0  0
  1  2  1  0
  2  3  1  0
  3  4  1  0
  3  5  2  0
  5  6  1  0
  6  7  2  0
  7  8  1  0
  8  9  2  0
  9 10  1  0
 10 11  2  0
 11 12  1  0
 12 13  2  0
 13 14  1  0
 14 15  1  0
 15 16  2  0
 15 17  1  0
 17 18  1  0
 18 19  2  0
 19 20  1  0
 20 21  2  0
 21 22  1  0
 22 23  1  0
 23 24  3  0
 22 25  2  0
 14 26  2  0
  9 27  1  0
 27 28  2  0
 28  2  1  0
 28  6  1  0
 26 10  1  0
 25 18  1  0
M  END
>  <zinc_id>  (1) 
ZINC000475239213

>  <smiles>  (1) 
Cn1c(O)nc2ncc(-c3cccc(C(=O)Nc4cccc(C#N)c4)c3)cc21

$$$$
