ZINC61142882
     RDKit          3D

 24 27  0  0  0  0  0  0  0  0999 V2000
   -1.4706   -2.5047   -1.0796 O   0  0  0  0  0  0  0  0  0  0  0  0
   -1.1824   -1.4182   -0.5267 C   0  0  0  0  0  0  0  0  0  0  0  0
    0.1495   -1.0383   -0.5353 O   0  0  0  0  0  0  0  0  0  0  0  0
    1.1683   -1.8191   -1.1338 C   0  0  0  0  0  0  0  0  0  0  0  0
    2.4620   -1.0933   -0.9450 C   0  0  0  0  0  0  0  0  0  0  0  0
    3.7080   -1.4979   -1.3733 C   0  0  0  0  0  0  0  0  0  0  0  0
    4.6451   -0.5877   -1.0241 N   0  0  0  0  0  0  0  0  0  0  0  0
    5.9813   -0.5213   -1.2069 C   0  0  0  0  0  0  0  0  0  0  0  0
    6.7198    0.5466   -0.7379 C   0  0  0  0  0  0  0  0  0  0  0  0
    8.6057    0.6800   -0.9739 Br  0  0  0  0  0  0  0  0  0  0  0  0
    6.0863    1.5799   -0.0627 C   0  0  0  0  0  0  0  0  0  0  0  0
    4.7212    1.4636    0.0973 C   0  0  0  0  0  0  0  0  0  0  0  0
    3.9917    0.3924   -0.3751 C   0  0  0  0  0  0  0  0  0  0  0  0
    2.6699    0.0937   -0.3231 N   0  0  0  0  0  0  0  0  0  0  0  0
   -2.2201   -0.5778    0.1078 C   0  0  0  0  0  0  0  0  0  0  0  0
   -3.5581   -0.8408    0.1820 C   0  0  0  0  0  0  0  0  0  0  0  0
   -4.1094    0.2278    0.8627 C   0  0  0  0  0  0  0  0  0  0  0  0
   -5.5393    0.3724    1.1772 C   0  0  0  0  0  0  0  0  0  0  0  0
   -6.5392   -0.5098    0.8540 C   0  0  0  0  0  0  0  0  0  0  0  0
   -7.7066    0.0312    1.3443 C   0  0  0  0  0  0  0  0  0  0  0  0
   -7.3640    1.2142    1.9414 C   0  0  0  0  0  0  0  0  0  0  0  0
   -6.0726    1.3888    1.8260 O   0  0  0  0  0  0  0  0  0  0  0  0
   -3.1396    1.0945    1.1824 N   0  0  0  0  0  0  0  0  0  0  0  0
   -2.0069    0.5984    0.7226 N   0  0  0  0  0  0  0  0  0  0  0  0
  1  2  2  0
  2  3  1  0
  3  4  1  0
  4  5  1  0
  5  6  2  0
  6  7  1  0
  7  8  1  0
  8  9  2  0
  9 10  1  0
  9 11  1  0
 11 12  2  0
 12 13  1  0
 13 14  2  0
  2 15  1  0
 15 16  1  0
 16 17  2  0
 17 18  1  0
 18 19  2  0
 19 20  1  0
 20 21  2  0
 21 22  1  0
 17 23  1  0
 23 24  1  0
 14  5  1  0
 24 15  2  0
 13  7  1  0
 22 18  1  0
M  END
>  <zinc_id>  (1) 
ZINC000061142882

>  <smiles>  (1) 
O=C(OCc1cn2cc(Br)ccc2n1)c1cc(-c2ccco2)[nH]n1

$$$$
