ZINC730084824
     RDKit          3D

 25 27  0  0  0  0  0  0  0  0999 V2000
    1.0535    1.5447    0.3472 C   0  0  0  0  0  0  0  0  0  0  0  0
    2.2653    0.7507    0.1009 C   0  0  0  0  0  0  0  0  0  0  0  0
    2.4116   -0.5545   -0.2806 C   0  0  0  0  0  0  0  0  0  0  0  0
    1.3959   -1.5504   -0.5588 C   0  0  0  0  0  0  0  0  0  0  0  0
    1.7716   -2.7464   -0.9104 O   0  0  0  0  0  0  0  0  0  0  0  0
    0.0064   -1.3007   -0.4708 C   0  0  0  0  0  0  0  0  0  0  0  0
   -0.7827   -0.3721   -0.1928 C   0  0  0  0  0  0  0  0  0  0  0  0
   -2.2446   -0.4078   -0.1864 C   0  0  0  0  0  0  0  0  0  0  0  0
   -2.9431   -1.5509   -0.5079 C   0  0  0  0  0  0  0  0  0  0  0  0
   -4.3181   -1.6180   -0.5133 C   0  0  0  0  0  0  0  0  0  0  0  0
   -5.0686   -0.4964   -0.1831 C   0  0  0  0  0  0  0  0  0  0  0  0
   -6.4572   -0.5287   -0.1786 O   0  0  0  0  0  0  0  0  0  0  0  0
   -4.3829    0.6534    0.1408 C   0  0  0  0  0  0  0  0  0  0  0  0
   -5.1593    1.7998    0.4773 N   0  0  0  0  0  4  0  0  0  0  0  0
   -4.6542    2.6449    1.2418 O   0  0  0  0  0  0  0  0  0  0  0  0
   -6.4269    1.9795   -0.0190 O   0  0  0  0  0  1  0  0  0  0  0  0
   -2.9896    0.7044    0.1411 C   0  0  0  0  0  0  0  0  0  0  0  0
    3.7911   -0.8294   -0.3763 C   0  0  0  0  0  0  0  0  0  0  0  0
    4.3718   -2.0939   -0.7500 C   0  0  0  0  0  0  0  0  0  0  0  0
    4.8580   -3.1088   -1.0441 N   0  0  0  0  0  0  0  0  0  0  0  0
    4.4257    0.3371   -0.0438 C   0  0  0  0  0  0  0  0  0  0  0  0
    3.5196    1.2726    0.2386 N   0  0  0  0  0  0  0  0  0  0  0  0
    4.2004    2.5123    0.5888 C   0  0  0  0  0  0  0  0  0  0  0  0
    5.5396    2.0575    1.0743 C   0  0  0  0  0  0  0  0  0  0  0  0
    5.8167    0.9009    0.1085 C   0  0  0  0  0  0  0  0  0  0  0  0
  1  2  1  0
  2  3  2  0
  3  4  1  0
  4  5  2  0
  4  6  1  0
  6  7  2  0
  7  8  1  0
  8  9  2  0
  9 10  1  0
 10 11  2  0
 11 12  1  0
 11 13  1  0
 13 14  1  0
 14 15  2  0
 14 16  1  0
 13 17  2  0
  3 18  1  0
 18 19  1  0
 19 20  3  0
 18 21  2  0
 21 22  1  0
 22 23  1  0
 23 24  1  0
 24 25  1  0
 22  2  1  0
 17  8  1  0
 25 21  1  0
M  CHG  2  14   1  16  -1
M  END
>  <zinc_id>  (1) 
ZINC000730084824

>  <smiles>  (1) 
Cc1c(C(=O)/C=C/c2ccc(O)c([N+](=O)[O-])c2)c(C#N)c2n1CCC2

$$$$
