
##########                                Name:        PDS_901_2I0E
##########                    Molecular_Weight:             441.553
##########                DOCK_Rotatable_Bonds:                   6
##########                       Formal_Charge:              0.9995
##########                     HBond_Acceptors:                   6
##########                        HBond_Donors:                   3
##########                         Heavy_Atoms:                  33
##########                            HA_RMSDs:               0.316
##########                            HA_RMSDh:               0.316
##########                            HA_RMSDm:               0.316
##########                          Grid_Score:         -102.178482
##########                     Grid_vdw_energy:          -45.311749
##########                      Grid_es_energy:          -56.866730
##########           Internal_energy_repulsive:           23.431404

@<TRIPOS>MOLECULE
PDS_901_2I0E
 62 66 1 0 0
SMALL
USER_CHARGES


@<TRIPOS>ATOM
      1 C1         39.7951   55.9962   39.2517 C.3     1  <0>        -0.0259
      2 C2         38.9472   53.7945   35.3487 C.3     1  <0>        -0.0257
      3 C3         42.8063   53.5231   33.9412 C.3     1  <0>        -0.0433
      4 C4         43.3473   55.0040   32.1518 C.3     1  <0>        -0.0433
      5 C5         40.1536   58.0626   33.4408 C.ar    1  <0>        -0.0611
      6 C6         35.0652   56.6720   31.5681 C.ar    1  <0>        -0.0611
      7 C7         41.5252   58.0683   33.8157 C.ar    1  <0>        -0.0600
      8 C8         35.8520   55.9342   30.6101 C.ar    1  <0>        -0.0600
      9 C9         39.1647   57.6396   34.3886 C.ar    1  <0>        -0.0522
     10 C10        35.3541   56.5583   32.9800 C.ar    1  <0>        -0.0522
     11 C11        41.9471   57.6555   35.1096 C.ar    1  <0>        -0.0400
     12 C12        36.9243   55.0847   31.0302 C.ar    1  <0>        -0.0398
     13 C13        40.4351   54.1557   32.0198 C.3     1  <0>         0.0036
     14 C14        39.1173   53.3894   32.3273 C.3     1  <0>         0.0218
     15 C15        41.6291   53.1924   31.8925 C.3     1  <0>        -0.0309
     16 C16        39.8797   56.4886   37.8678 C.2     1  <0>         0.0136
     17 C17        38.0420   54.4637   34.4213 C.2     1  <0>         0.0163
     18 C18        39.5295   57.2196   35.7229 C.ar    1  <0>         0.0054
     19 C19        36.4211   55.7117   33.4377 C.ar    1  <0>         0.0057
     20 C20        40.9622   57.2305   36.0669 C.ar    1  <0>         0.0390
     21 C21        37.2077   54.9773   32.4346 C.ar    1  <0>         0.0416
     22 C22        38.8544   56.7353   36.8996 C.2     1  <0>         0.0135
     23 C23        36.9728   55.3851   34.6944 C.2     1  <0>         0.0137
     24 C24        37.3409   56.5026   37.0473 C.2     1  <0>         0.0590
     25 C25        36.5238   55.9059   36.0705 C.2     1  <0>         0.0590
     26 C26        36.5999   56.8377   38.2024 C.2     1  <0>         0.2519
     27 C27        35.1532   55.8440   36.5203 C.2     1  <0>         0.2519
     28 N1         41.1038   56.7846   37.3526 N.pl3   1  <0>        -0.3170
     29 N2         35.2670   56.4172   37.8383 N.am    1  <0>        -0.2483
     30 N3         38.1644   54.2498   33.0585 N.pl3   1  <0>        -0.3026
     31 N4         42.9206   53.6198   32.4732 N.4     1  <0>         0.2309
     32 O1         36.9725   57.3485   39.2344 O.2     1  <0>        -0.2697
     33 O2         34.1584   55.3994   35.9270 O.2     1  <0>        -0.2697
     34 H1         39.8645   54.8983   39.2557 H       1  <0>         0.0290
     35 H2         40.6221   56.4179   39.8418 H       1  <0>         0.0290
     36 H3         38.8355   56.3044   39.6923 H       1  <0>         0.0290
     37 H4         38.5145   52.8298   35.6524 H       1  <0>         0.0290
     38 H5         39.9156   53.6230   34.8560 H       1  <0>         0.0290
     39 H6         39.0943   54.4261   36.2371 H       1  <0>         0.0290
     40 H7         42.4906   52.5066   34.2187 H       1  <0>         0.0777
     41 H8         43.7819   53.7419   34.3999 H       1  <0>         0.0777
     42 H9         42.0615   54.2490   34.2994 H       1  <0>         0.0777
     43 H10        43.4436   55.1148   31.0616 H       1  <0>         0.0777
     44 H11        42.5971   55.7154   32.5275 H       1  <0>         0.0777
     45 H12        44.3176   55.2083   32.6280 H       1  <0>         0.0777
     46 H13        39.8591   58.3747   32.4497 H       1  <0>         0.0618
     47 H14        34.2609   57.3089   31.2308 H       1  <0>         0.0618
     48 H15        42.2653   58.3943   33.0999 H       1  <0>         0.0618
     49 H16        35.6279   56.0245   29.5575 H       1  <0>         0.0618
     50 H17        38.1241   57.6345   34.0993 H       1  <0>         0.0624
     51 H18        34.7645   57.1129   33.6950 H       1  <0>         0.0624
     52 H19        42.9952   57.6611   35.3701 H       1  <0>         0.0636
     53 H20        37.5084   54.5357   30.3064 H       1  <0>         0.0636
     54 H21        40.3159   54.7005   31.0717 H       1  <0>         0.0332
     55 H22        40.6345   54.8618   32.8393 H       1  <0>         0.0332
     56 H23        38.6583   53.0722   31.3793 H       1  <0>         0.0469
     57 H24        39.3509   52.5092   32.9443 H       1  <0>         0.0469
     58 H25        41.3429   52.2610   32.4031 H       1  <0>         0.0815
     59 H26        41.7993   53.0365   30.8170 H       1  <0>         0.0815
     60 H27        41.9727   56.6907   37.8386 H       1  <0>         0.1519
     61 H28        34.4840   56.5160   38.4525 H       1  <0>         0.1581
     62 H29        43.6107   53.0178   32.0718 H       1  <0>         0.2028
@<TRIPOS>BOND
     1     1    16    1
     2     2    17    1
     3     3    31    1
     4     4    31    1
     5     5     7   ar
     6     5     9   ar
     7     6     8   ar
     8     6    10   ar
     9     7    11   ar
    10     8    12   ar
    11     9    18   ar
    12    10    19   ar
    13    11    20   ar
    14    12    21   ar
    15    13    14    1
    16    13    15    1
    17    14    30    1
    18    15    31    1
    19    16    22    2
    20    16    28    1
    21    17    23    2
    22    17    30    1
    23    18    20   ar
    24    18    22    1
    25    19    21   ar
    26    19    23    1
    27    20    28    1
    28    21    30    1
    29    22    24    1
    30    23    25    1
    31    24    25    2
    32    24    26    1
    33    25    27    1
    34    26    29   am
    35    26    32    2
    36    27    29   am
    37    27    33    2
    38     1    34    1
    39     1    35    1
    40     1    36    1
    41     2    37    1
    42     2    38    1
    43     2    39    1
    44     3    40    1
    45     3    41    1
    46     3    42    1
    47     4    43    1
    48     4    44    1
    49     4    45    1
    50     5    46    1
    51     6    47    1
    52     7    48    1
    53     8    49    1
    54     9    50    1
    55    10    51    1
    56    11    52    1
    57    12    53    1
    58    13    54    1
    59    13    55    1
    60    14    56    1
    61    14    57    1
    62    15    58    1
    63    15    59    1
    64    28    60    1
    65    29    61    1
    66    31    62    1
@<TRIPOS>SUBSTRUCTURE
     1 <0>         1 TEMP              0 ****  ****    0 ROOT

