
##########                                Name:        ONO_501_2AYW
##########                    Molecular_Weight:             533.584
##########                DOCK_Rotatable_Bonds:                  12
##########                       Formal_Charge:          -0.0004998
##########                     HBond_Acceptors:                  11
##########                        HBond_Donors:                   7
##########                         Heavy_Atoms:                  39
##########                            HA_RMSDs:               8.633
##########                            HA_RMSDh:               7.285
##########                            HA_RMSDm:               4.786
##########                          Grid_Score:          -81.165344
##########                     Grid_vdw_energy:          -50.295013
##########                      Grid_es_energy:          -30.870327
##########           Internal_energy_repulsive:           20.940727

@<TRIPOS>MOLECULE
ONO_501_2AYW
 70 72 1 0 0
SMALL
USER_CHARGES


@<TRIPOS>ATOM
      1 C1         29.4345   22.2134   37.4067 C.3     1  <0>        -0.0583
      2 C2         28.8506   19.7075   37.0650 C.3     1  <0>        -0.0583
      3 C3         29.4927   20.6735   39.2686 C.3     1  <0>        -0.0583
      4 C4         22.0300   20.8331   26.8399 C.3     1  <0>         0.0446
      5 C5         28.6680   17.3572   29.0248 C.ar    1  <0>        -0.0452
      6 C6         26.9200   15.8165   28.5101 C.ar    1  <0>        -0.0452
      7 C7         27.7258   18.2863   29.4326 C.ar    1  <0>        -0.0397
      8 C8         25.9860   16.7449   28.9172 C.ar    1  <0>        -0.0397
      9 C9         23.7412   19.5956   35.1807 C.ar    1  <0>        -0.0490
     10 C10        23.1775   19.6628   33.9142 C.ar    1  <0>        -0.0526
     11 C11        22.0060   21.6015   31.5082 C.ar    1  <0>        -0.0479
     12 C12        21.4378   21.8804   30.2743 C.ar    1  <0>        -0.0118
     13 C13        25.3894   21.2267   34.5281 C.ar    1  <0>        -0.0402
     14 C14        26.7387   22.0607   39.3955 C.3     1  <0>         0.0631
     15 C15        28.2765   16.1255   28.5261 C.ar    1  <0>         0.0611
     16 C16        26.3802   17.9964   29.3778 C.ar    1  <0>         0.0338
     17 C17        24.7649   20.4147   35.5146 C.ar    1  <0>         0.0373
     18 C18        23.6790   20.5582   32.9749 C.ar    1  <0>        -0.0068
     19 C19        23.0318   20.6087   31.6615 C.ar    1  <0>         0.0134
     20 C20        21.9346   21.1741   29.1813 C.ar    1  <0>         0.1683
     21 C21        24.8415   21.3171   33.2819 C.ar    1  <0>         0.0058
     22 C22        23.4784   20.0094   30.5501 C.ar    1  <0>         0.1362
     23 C23        27.2202   21.2046   38.2766 C.3     1  <0>         0.0513
     24 C24        29.2708   15.1665   28.0585 C.cat   1  <0>         0.2605
     25 C25        25.4079   20.3407   36.7746 C.2     1  <0>         0.2444
     26 C26        25.4309   22.3027   32.3026 C.2     1  <0>         0.0723
     27 C27        24.3925   18.9033   30.4744 C.2     1  <0>         0.2673
     28 C28        28.7206   20.9446   37.9869 C.3     1  <0>        -0.0172
     29 N1         30.5274   15.5353   27.8379 N.pl3   1  <0>        -0.3060
     30 N2         28.9336   13.9038   27.8400 N.pl3   1  <0>        -0.2158
     31 N3         22.9167   20.2530   29.3068 N.ar    1  <0>        -0.2182
     32 N4         25.4690   19.0114   29.6860 N.am    1  <0>        -0.2802
     33 N5         26.3663   21.2835   37.0501 N.am    1  <0>        -0.3058
     34 O1         25.3450   21.8716   39.7430 O.3     1  <0>        -0.3932
     35 O2         24.6953   23.1908   31.8534 O.co2   1  <0>        -0.5446
     36 O3         24.8961   19.4397   37.4513 O.2     1  <0>        -0.2702
     37 O4         26.6276   22.2066   32.0319 O.co2   1  <0>        -0.5446
     38 O5         24.1106   17.8908   30.9605 O.2     1  <0>        -0.2682
     39 O6         21.4232   21.4800   27.9662 O.3     1  <0>        -0.3315
     40 H1         29.3084   23.0561   38.1024 H       1  <0>         0.0235
     41 H2         30.5063   22.0032   37.2760 H       1  <0>         0.0235
     42 H3         28.9900   22.4713   36.4341 H       1  <0>         0.0235
     43 H4         28.3323   18.8521   37.5230 H       1  <0>         0.0235
     44 H5         28.3979   19.9297   36.0874 H       1  <0>         0.0235
     45 H6         29.9142   19.4616   36.9293 H       1  <0>         0.0235
     46 H7         29.0728   19.7892   39.7702 H       1  <0>         0.0235
     47 H8         30.5503   20.4905   39.0276 H       1  <0>         0.0235
     48 H9         29.4139   21.5450   39.9352 H       1  <0>         0.0235
     49 H10        21.5311   21.1604   25.9159 H       1  <0>         0.0529
     50 H11        23.0963   21.0996   26.7949 H       1  <0>         0.0529
     51 H12        21.9285   19.7429   26.9449 H       1  <0>         0.0529
     52 H13        29.7191   17.5952   29.0963 H       1  <0>         0.0627
     53 H14        26.5963   14.8417   28.1761 H       1  <0>         0.0627
     54 H15        28.0497   19.2496   29.7979 H       1  <0>         0.0636
     55 H16        24.9355   16.4974   28.8779 H       1  <0>         0.0636
     56 H17        23.3615   18.8871   35.9019 H       1  <0>         0.0625
     57 H18        22.3489   19.0195   33.6576 H       1  <0>         0.0624
     58 H19        21.6677   22.1459   32.3774 H       1  <0>         0.0626
     59 H20        20.6485   22.6095   30.1661 H       1  <0>         0.0660
     60 H21        26.2930   21.7690   34.7643 H       1  <0>         0.0632
     61 H22        27.3420   21.8232   40.2841 H       1  <0>         0.0576
     62 H23        26.8711   23.1109   39.0963 H       1  <0>         0.0576
     63 H24        27.0671   20.2518   38.8044 H       1  <0>         0.0526
     64 H25        31.1956   14.8655   27.5139 H       1  <0>         0.1477
     65 H26        30.8054   16.4828   27.9957 H       1  <0>         0.1477
     66 H27        29.6193   13.2520   27.5161 H       1  <0>         0.4359
     67 H28        27.9933   13.6027   27.9990 H       1  <0>         0.4359
     68 H29        25.6384   19.9078   29.2764 H       1  <0>         0.1552
     69 H30        26.4977   22.0438   36.4141 H       1  <0>         0.1494
     70 H31        25.1043   22.4806   40.4313 H       1  <0>         0.2095
@<TRIPOS>BOND
     1     1    28    1
     2     2    28    1
     3     3    28    1
     4     4    39    1
     5     5     7   ar
     6     5    15   ar
     7     6     8   ar
     8     6    15   ar
     9     7    16   ar
    10     8    16   ar
    11     9    10   ar
    12     9    17   ar
    13    10    18   ar
    14    11    12   ar
    15    11    19   ar
    16    12    20   ar
    17    13    17   ar
    18    13    21   ar
    19    14    23    1
    20    14    34    1
    21    15    24    1
    22    16    32    1
    23    17    25    1
    24    18    19    1
    25    18    21   ar
    26    19    22   ar
    27    20    31   ar
    28    20    39    1
    29    21    26    1
    30    22    27    1
    31    22    31   ar
    32    23    28    1
    33    23    33    1
    34    24    29    1
    35    24    30    2
    36    25    33   am
    37    25    36    2
    38    26    35    1
    39    26    37    2
    40    27    32   am
    41    27    38    2
    42     1    40    1
    43     1    41    1
    44     1    42    1
    45     2    43    1
    46     2    44    1
    47     2    45    1
    48     3    46    1
    49     3    47    1
    50     3    48    1
    51     4    49    1
    52     4    50    1
    53     4    51    1
    54     5    52    1
    55     6    53    1
    56     7    54    1
    57     8    55    1
    58     9    56    1
    59    10    57    1
    60    11    58    1
    61    12    59    1
    62    13    60    1
    63    14    61    1
    64    14    62    1
    65    23    63    1
    66    29    64    1
    67    29    65    1
    68    30    66    1
    69    30    67    1
    70    32    68    1
    71    33    69    1
    72    34    70    1
@<TRIPOS>SUBSTRUCTURE
     1 <0>         1 TEMP              0 ****  ****    0 ROOT

