
##########                                Name:        ONO_501_2AYW
##########                    Molecular_Weight:             533.584
##########                DOCK_Rotatable_Bonds:                  12
##########                       Formal_Charge:          -0.0004998
##########                     HBond_Acceptors:                  11
##########                        HBond_Donors:                   7
##########                         Heavy_Atoms:                  39
##########                            HA_RMSDs:              10.950
##########                            HA_RMSDh:               9.500
##########                            HA_RMSDm:               6.568
##########                          Grid_Score:          -76.644623
##########                     Grid_vdw_energy:          -45.208591
##########                      Grid_es_energy:          -31.436028
##########           Internal_energy_repulsive:           19.207840

@<TRIPOS>MOLECULE
ONO_501_2AYW
 70 72 1 0 0
SMALL
USER_CHARGES


@<TRIPOS>ATOM
      1 C1         29.3200   17.4921   41.2256 C.3     1  <0>        -0.0583
      2 C2         28.1675   16.8217   38.9987 C.3     1  <0>        -0.0583
      3 C3         27.4571   15.9525   41.2215 C.3     1  <0>        -0.0583
      4 C4         29.5288   24.6924   30.0605 C.3     1  <0>         0.0446
      5 C5         29.0540   17.3298   29.5071 C.ar    1  <0>        -0.0452
      6 C6         26.7755   17.8840   29.0646 C.ar    1  <0>        -0.0452
      7 C7         29.1530   18.4218   30.3527 C.ar    1  <0>        -0.0397
      8 C8         26.8792   18.9699   29.9073 C.ar    1  <0>        -0.0397
      9 C9         25.5169   20.8582   36.6776 C.ar    1  <0>        -0.0490
     10 C10        25.8232   21.6615   35.5879 C.ar    1  <0>        -0.0526
     11 C11        27.6741   24.0094   34.3242 C.ar    1  <0>        -0.0479
     12 C12        28.1227   24.9117   33.3715 C.ar    1  <0>        -0.0118
     13 C13        27.8135   20.1397   36.7867 C.ar    1  <0>        -0.0402
     14 C14        26.5512   18.9658   41.8936 C.3     1  <0>         0.0631
     15 C15        27.8765   17.0675   28.8260 C.ar    1  <0>         0.0611
     16 C16        28.0752   19.2551   30.5571 C.ar    1  <0>         0.0338
     17 C17        26.4956   20.1798   37.3196 C.ar    1  <0>         0.0373
     18 C18        27.1362   21.7538   35.1374 C.ar    1  <0>        -0.0068
     19 C19        27.4107   22.6357   34.0002 C.ar    1  <0>         0.0134
     20 C20        28.3394   24.4132   32.0889 C.ar    1  <0>         0.1683
     21 C21        28.1374   20.9333   35.7253 C.ar    1  <0>         0.0058
     22 C22        27.6880   22.2342   32.7530 C.ar    1  <0>         0.1362
     23 C23        26.9688   18.3616   40.5985 C.3     1  <0>         0.0513
     24 C24        27.7902   15.9407   27.9042 C.cat   1  <0>         0.2605
     25 C25        26.2211   19.3040   38.3986 C.2     1  <0>         0.2444
     26 C26        29.5776   20.9896   35.2774 C.2     1  <0>         0.0723
     27 C27        27.3834   20.9565   32.1704 C.2     1  <0>         0.2673
     28 C28        27.9704   17.1835   40.4913 C.3     1  <0>        -0.0172
     29 N1         28.8833   15.3146   27.4835 N.pl3   1  <0>        -0.3060
     30 N2         26.6121   15.5229   27.4645 N.pl3   1  <0>        -0.2158
     31 N3         28.1182   23.1167   31.7748 N.ar    1  <0>        -0.2182
     32 N4         28.2640   20.4095   31.3234 N.am    1  <0>        -0.2802
     33 N5         27.0662   19.3498   39.4789 N.am    1  <0>        -0.3058
     34 O1         25.2572   19.6169   41.8661 O.3     1  <0>        -0.3932
     35 O2         30.1962   22.0504   35.4313 O.co2   1  <0>        -0.5446
     36 O3         25.1685   18.6909   38.1803 O.2     1  <0>        -0.2702
     37 O4         30.0845   19.9643   34.8231 O.co2   1  <0>        -0.5446
     38 O5         26.3297   20.4974   32.3112 O.2     1  <0>        -0.2682
     39 O6         28.8292   25.2752   31.1677 O.3     1  <0>        -0.3315
     40 H1         29.1170   17.7413   42.2777 H       1  <0>         0.0235
     41 H2         29.9736   16.6087   41.1778 H       1  <0>         0.0235
     42 H3         29.8170   18.3430   40.7368 H       1  <0>         0.0235
     43 H4         27.1897   16.6164   38.5384 H       1  <0>         0.0235
     44 H5         28.6481   17.6631   38.4780 H       1  <0>         0.0235
     45 H6         28.8048   15.9287   38.9190 H       1  <0>         0.0235
     46 H7         26.4975   15.6396   40.7841 H       1  <0>         0.0235
     47 H8         28.1881   15.1365   41.1231 H       1  <0>         0.0235
     48 H9         27.3143   16.1907   42.2859 H       1  <0>         0.0235
     49 H10        29.8763   25.4885   29.3857 H       1  <0>         0.0529
     50 H11        30.3938   24.1234   30.4320 H       1  <0>         0.0529
     51 H12        28.8532   24.0178   29.5142 H       1  <0>         0.0529
     52 H13        29.9036   16.6757   29.3773 H       1  <0>         0.0627
     53 H14        25.8324   17.6654   28.5858 H       1  <0>         0.0627
     54 H15        30.0861   18.6227   30.8580 H       1  <0>         0.0636
     55 H16        26.0214   19.6068   30.0648 H       1  <0>         0.0636
     56 H17        24.4941   20.7745   37.0140 H       1  <0>         0.0625
     57 H18        25.0415   22.2153   35.0893 H       1  <0>         0.0624
     58 H19        27.5186   24.3493   35.3375 H       1  <0>         0.0626
     59 H20        28.2956   25.9503   33.6121 H       1  <0>         0.0660
     60 H21        28.5544   19.4842   37.2203 H       1  <0>         0.0632
     61 H22        26.5064   18.1604   42.6414 H       1  <0>         0.0576
     62 H23        27.3017   19.7211   42.1697 H       1  <0>         0.0576
     63 H24        26.0766   17.7275   40.4898 H       1  <0>         0.0526
     64 H25        28.8062   14.5458   26.8485 H       1  <0>         0.1477
     65 H26        29.7835   15.6119   27.8016 H       1  <0>         0.1477
     66 H27        26.5600   14.7519   26.8298 H       1  <0>         0.4359
     67 H28        25.7751   15.9787   27.7673 H       1  <0>         0.4359
     68 H29        29.1452   20.8728   31.2293 H       1  <0>         0.1552
     69 H30        27.7662   20.0627   39.5190 H       1  <0>         0.1494
     70 H31        25.0399   19.9274   42.7372 H       1  <0>         0.2095
@<TRIPOS>BOND
     1     1    28    1
     2     2    28    1
     3     3    28    1
     4     4    39    1
     5     5     7   ar
     6     5    15   ar
     7     6     8   ar
     8     6    15   ar
     9     7    16   ar
    10     8    16   ar
    11     9    10   ar
    12     9    17   ar
    13    10    18   ar
    14    11    12   ar
    15    11    19   ar
    16    12    20   ar
    17    13    17   ar
    18    13    21   ar
    19    14    23    1
    20    14    34    1
    21    15    24    1
    22    16    32    1
    23    17    25    1
    24    18    19    1
    25    18    21   ar
    26    19    22   ar
    27    20    31   ar
    28    20    39    1
    29    21    26    1
    30    22    27    1
    31    22    31   ar
    32    23    28    1
    33    23    33    1
    34    24    29    1
    35    24    30    2
    36    25    33   am
    37    25    36    2
    38    26    35    1
    39    26    37    2
    40    27    32   am
    41    27    38    2
    42     1    40    1
    43     1    41    1
    44     1    42    1
    45     2    43    1
    46     2    44    1
    47     2    45    1
    48     3    46    1
    49     3    47    1
    50     3    48    1
    51     4    49    1
    52     4    50    1
    53     4    51    1
    54     5    52    1
    55     6    53    1
    56     7    54    1
    57     8    55    1
    58     9    56    1
    59    10    57    1
    60    11    58    1
    61    12    59    1
    62    13    60    1
    63    14    61    1
    64    14    62    1
    65    23    63    1
    66    29    64    1
    67    29    65    1
    68    30    66    1
    69    30    67    1
    70    32    68    1
    71    33    69    1
    72    34    70    1
@<TRIPOS>SUBSTRUCTURE
     1 <0>         1 TEMP              0 ****  ****    0 ROOT

