
##########                                Name:        ONO_501_2AYW
##########                    Molecular_Weight:             533.584
##########                DOCK_Rotatable_Bonds:                  12
##########                       Formal_Charge:          -0.0004998
##########                     HBond_Acceptors:                  11
##########                        HBond_Donors:                   7
##########                         Heavy_Atoms:                  39
##########                            HA_RMSDs:               0.597
##########                            HA_RMSDh:               0.597
##########                            HA_RMSDm:               0.597
##########                          Grid_Score:          -74.990891
##########                     Grid_vdw_energy:          -56.064808
##########                      Grid_es_energy:          -18.926086
##########           Internal_energy_repulsive:           25.382933

@<TRIPOS>MOLECULE
ONO_501_2AYW
 70 72 1 0 0
SMALL
USER_CHARGES


@<TRIPOS>ATOM
      1 C1         20.3739   23.9940   23.4021 C.3     1  <0>        -0.0583
      2 C2         22.9447   23.6444   23.4792 C.3     1  <0>        -0.0583
      3 C3         21.8570   25.5291   22.2685 C.3     1  <0>        -0.0583
      4 C4         23.0395   16.9346   33.9969 C.3     1  <0>         0.0446
      5 C5         27.1415   15.6311   28.4098 C.ar    1  <0>        -0.0452
      6 C6         28.4840   17.5350   28.9267 C.ar    1  <0>        -0.0452
      7 C7         26.0329   16.2730   28.9353 C.ar    1  <0>        -0.0397
      8 C8         27.3773   18.1698   29.4486 C.ar    1  <0>        -0.0397
      9 C9         23.5366   24.0673   29.1659 C.ar    1  <0>        -0.0490
     10 C10        23.5325   23.1306   30.1901 C.ar    1  <0>        -0.0526
     11 C11        21.9799   21.1336   32.0863 C.ar    1  <0>        -0.0479
     12 C12        21.7461   20.2178   33.1012 C.ar    1  <0>        -0.0118
     13 C13        22.5938   22.4300   27.6716 C.ar    1  <0>        -0.0402
     14 C14        21.2965   26.8752   24.9511 C.3     1  <0>         0.0631
     15 C15        28.3862   16.2388   28.4306 C.ar    1  <0>         0.0611
     16 C16        26.1373   17.5405   29.4647 C.ar    1  <0>         0.0338
     17 C17        23.0037   23.7607   27.9608 C.ar    1  <0>         0.0373
     18 C18        23.0002   21.8637   29.9735 C.ar    1  <0>        -0.0068
     19 C19        22.9960   20.9206   31.0946 C.ar    1  <0>         0.0134
     20 C20        22.5227   19.0614   33.0933 C.ar    1  <0>         0.1683
     21 C21        22.5689   21.4991   28.6687 C.ar    1  <0>         0.0058
     22 C22        23.6651   19.7613   31.1392 C.ar    1  <0>         0.1362
     23 C23        21.9110   25.5270   24.8037 C.3     1  <0>         0.0513
     24 C24        29.5587   15.5418   27.9144 C.cat   1  <0>         0.2605
     25 C25        23.0383   24.6646   26.8706 C.2     1  <0>         0.2444
     26 C26        21.9842   20.1393   28.3739 C.2     1  <0>         0.0723
     27 C27        24.8024   19.3906   30.3429 C.2     1  <0>         0.2673
     28 C28        21.7838   24.6681   23.5197 C.3     1  <0>        -0.0172
     29 N1         29.5283   14.2361   27.6732 N.pl3   1  <0>        -0.3060
     30 N2         30.6828   16.2032   27.6803 N.pl3   1  <0>        -0.2158
     31 N3         23.4673   18.8363   32.1521 N.ar    1  <0>        -0.2182
     32 N4         25.0157   18.0933   30.0908 N.am    1  <0>        -0.2802
     33 N5         21.9247   24.7319   26.0714 N.am    1  <0>        -0.3058
     34 O1         22.1542   27.8645   25.5714 O.3     1  <0>        -0.3932
     35 O2         20.7783   19.9627   28.5894 O.co2   1  <0>        -0.5446
     36 O3         24.0927   25.3117   26.8991 O.2     1  <0>        -0.2702
     37 O4         22.7228   19.2828   27.8888 O.co2   1  <0>        -0.5446
     38 O5         25.5958   20.1881   30.0682 O.2     1  <0>        -0.2682
     39 O6         22.2629   18.1384   34.0483 O.3     1  <0>        -0.3315
     40 H1         19.5928   24.7678   23.4366 H       1  <0>         0.0235
     41 H2         20.3071   23.4481   22.4494 H       1  <0>         0.0235
     42 H3         20.2323   23.2926   24.2375 H       1  <0>         0.0235
     43 H4         23.9048   24.1744   23.5655 H       1  <0>         0.0235
     44 H5         22.8397   22.9379   24.3157 H       1  <0>         0.0235
     45 H6         22.9145   23.0933   22.5277 H       1  <0>         0.0235
     46 H7         22.8205   26.0592   22.2433 H       1  <0>         0.0235
     47 H8         21.7671   24.8898   21.3779 H       1  <0>         0.0235
     48 H9         21.0361   26.2613   22.2789 H       1  <0>         0.0235
     49 H10        22.7383   16.2680   34.8185 H       1  <0>         0.0529
     50 H11        22.8697   16.4298   33.0345 H       1  <0>         0.0529
     51 H12        24.1064   17.1821   34.0980 H       1  <0>         0.0529
     52 H13        27.0347   14.6463   27.9793 H       1  <0>         0.0627
     53 H14        29.4342   18.0479   28.9025 H       1  <0>         0.0627
     54 H15        25.0750   15.7742   28.9300 H       1  <0>         0.0636
     55 H16        27.4744   19.1677   29.8499 H       1  <0>         0.0636
     56 H17        23.9666   25.0441   29.3315 H       1  <0>         0.0625
     57 H18        23.9429   23.3855   31.1560 H       1  <0>         0.0624
     58 H19        21.3813   22.0314   32.0408 H       1  <0>         0.0626
     59 H20        20.9984   20.3927   33.8606 H       1  <0>         0.0660
     60 H21        22.3037   22.1577   26.6676 H       1  <0>         0.0632
     61 H22        21.0372   27.2381   23.9456 H       1  <0>         0.0576
     62 H23        20.3985   26.7687   25.5774 H       1  <0>         0.0576
     63 H24        22.9167   25.8998   24.5599 H       1  <0>         0.0526
     64 H25        30.3425   13.7733   27.3225 H       1  <0>         0.1477
     65 H26        28.6912   13.7158   27.8421 H       1  <0>         0.1477
     66 H27        31.4842   15.7188   27.3295 H       1  <0>         0.4359
     67 H28        30.7296   17.1869   27.8543 H       1  <0>         0.4359
     68 H29        24.3014   17.4557   30.3791 H       1  <0>         0.1552
     69 H30        21.1000   24.2361   26.3435 H       1  <0>         0.1494
     70 H31        21.7280   28.7132   25.5479 H       1  <0>         0.2095
@<TRIPOS>BOND
     1     1    28    1
     2     2    28    1
     3     3    28    1
     4     4    39    1
     5     5     7   ar
     6     5    15   ar
     7     6     8   ar
     8     6    15   ar
     9     7    16   ar
    10     8    16   ar
    11     9    10   ar
    12     9    17   ar
    13    10    18   ar
    14    11    12   ar
    15    11    19   ar
    16    12    20   ar
    17    13    17   ar
    18    13    21   ar
    19    14    23    1
    20    14    34    1
    21    15    24    1
    22    16    32    1
    23    17    25    1
    24    18    19    1
    25    18    21   ar
    26    19    22   ar
    27    20    31   ar
    28    20    39    1
    29    21    26    1
    30    22    27    1
    31    22    31   ar
    32    23    28    1
    33    23    33    1
    34    24    29    1
    35    24    30    2
    36    25    33   am
    37    25    36    2
    38    26    35    1
    39    26    37    2
    40    27    32   am
    41    27    38    2
    42     1    40    1
    43     1    41    1
    44     1    42    1
    45     2    43    1
    46     2    44    1
    47     2    45    1
    48     3    46    1
    49     3    47    1
    50     3    48    1
    51     4    49    1
    52     4    50    1
    53     4    51    1
    54     5    52    1
    55     6    53    1
    56     7    54    1
    57     8    55    1
    58     9    56    1
    59    10    57    1
    60    11    58    1
    61    12    59    1
    62    13    60    1
    63    14    61    1
    64    14    62    1
    65    23    63    1
    66    29    64    1
    67    29    65    1
    68    30    66    1
    69    30    67    1
    70    32    68    1
    71    33    69    1
    72    34    70    1
@<TRIPOS>SUBSTRUCTURE
     1 <0>         1 TEMP              0 ****  ****    0 ROOT

