
##########                                Name:        ONO_501_2AYW
##########                    Molecular_Weight:             533.584
##########                DOCK_Rotatable_Bonds:                  12
##########                       Formal_Charge:          -0.0004998
##########                     HBond_Acceptors:                  11
##########                        HBond_Donors:                   7
##########                         Heavy_Atoms:                  39
##########                            HA_RMSDs:              10.974
##########                            HA_RMSDh:               9.483
##########                            HA_RMSDm:               6.574
##########                          Grid_Score:          -74.826118
##########                     Grid_vdw_energy:          -41.054279
##########                      Grid_es_energy:          -33.771839
##########           Internal_energy_repulsive:           21.641535

@<TRIPOS>MOLECULE
ONO_501_2AYW
 70 72 1 0 0
SMALL
USER_CHARGES


@<TRIPOS>ATOM
      1 C1         29.5034   17.6500   41.0368 C.3     1  <0>        -0.0583
      2 C2         28.3149   16.6391   38.9626 C.3     1  <0>        -0.0583
      3 C3         27.8473   15.9091   41.2971 C.3     1  <0>        -0.0583
      4 C4         28.9520   25.0765   30.2491 C.3     1  <0>         0.0446
      5 C5         28.1716   17.6545   29.6626 C.ar    1  <0>        -0.0452
      6 C6         25.9171   18.3501   29.3050 C.ar    1  <0>        -0.0452
      7 C7         28.3623   18.7227   30.5228 C.ar    1  <0>        -0.0397
      8 C8         26.1120   19.4118   30.1621 C.ar    1  <0>        -0.0397
      9 C9         25.3026   21.2259   37.0693 C.ar    1  <0>        -0.0490
     10 C10        25.5564   22.0538   35.9847 C.ar    1  <0>        -0.0526
     11 C11        27.3940   24.3166   34.6140 C.ar    1  <0>        -0.0479
     12 C12        27.8074   25.2332   33.6589 C.ar    1  <0>        -0.0118
     13 C13        27.5247   20.3139   36.8866 C.ar    1  <0>        -0.0402
     14 C14        26.4355   18.6498   41.7789 C.3     1  <0>         0.0631
     15 C15        26.9595   17.4748   29.0164 C.ar    1  <0>         0.0611
     16 C16        27.3430   19.6139   30.7768 C.ar    1  <0>         0.0338
     17 C17        26.2824   20.4373   37.5678 C.ar    1  <0>         0.0373
     18 C18        26.8146   22.0585   35.3911 C.ar    1  <0>        -0.0068
     19 C19        27.0388   22.9697   34.2660 C.ar    1  <0>         0.0134
     20 C20        27.8951   24.7746   32.3465 C.ar    1  <0>         0.1683
     21 C21        27.7982   21.1293   35.8275 C.ar    1  <0>         0.0058
     22 C22        27.1943   22.6038   32.9871 C.ar    1  <0>         0.1362
     23 C23        27.0306   18.1736   40.4999 C.3     1  <0>         0.0513
     24 C24        26.7769   16.3727   28.0790 C.cat   1  <0>         0.2605
     25 C25        26.0524   19.5351   38.6354 C.2     1  <0>         0.2444
     26 C26        29.1794   21.0875   35.2206 C.2     1  <0>         0.0723
     27 C27        26.7818   21.3645   32.3882 C.2     1  <0>         0.2673
     28 C28        28.1618   17.1163   40.4276 C.3     1  <0>        -0.0172
     29 N1         27.8169   15.6914   27.6118 N.pl3   1  <0>        -0.3060
     30 N2         25.5626   16.0333   27.6714 N.pl3   1  <0>        -0.2158
     31 N3         27.5864   23.5024   32.0075 N.ar    1  <0>        -0.2182
     32 N4         27.6245   20.7405   31.5559 N.am    1  <0>        -0.2802
     33 N5         27.1172   19.2335   39.4469 N.am    1  <0>        -0.3058
     34 O1         25.0907   19.1755   41.6597 O.3     1  <0>        -0.3932
     35 O2         29.8196   22.1445   35.1519 O.co2   1  <0>        -0.5446
     36 O3         24.8514   19.2400   38.6802 O.2     1  <0>        -0.2702
     37 O4         29.6242   19.9965   34.8649 O.co2   1  <0>        -0.5446
     38 O5         25.6863   21.0075   32.5031 O.2     1  <0>        -0.2682
     39 O6         28.3500   25.6478   31.4180 O.3     1  <0>        -0.3315
     40 H1         29.3327   17.9731   42.0744 H       1  <0>         0.0235
     41 H2         30.2570   16.8489   41.0218 H       1  <0>         0.0235
     42 H3         29.8625   18.5026   40.4417 H       1  <0>         0.0235
     43 H4         27.3447   16.2773   38.5910 H       1  <0>         0.0235
     44 H5         28.6571   17.4773   38.3379 H       1  <0>         0.0235
     45 H6         29.0517   15.8235   38.9179 H       1  <0>         0.0235
     46 H7         26.9098   15.4454   40.9563 H       1  <0>         0.0235
     47 H8         28.6664   15.1789   41.2205 H       1  <0>         0.0235
     48 H9         27.7384   16.2297   42.3437 H       1  <0>         0.0235
     49 H10        29.2796   25.8810   29.5744 H       1  <0>         0.0529
     50 H11        29.8203   24.4690   30.5438 H       1  <0>         0.0529
     51 H12        28.2179   24.4409   29.7324 H       1  <0>         0.0529
     52 H13        28.9763   16.9542   29.4937 H       1  <0>         0.0627
     53 H14        24.9479   18.1964   28.8540 H       1  <0>         0.0627
     54 H15        29.3214   18.8588   31.0003 H       1  <0>         0.0636
     55 H16        25.2990   20.0950   30.3587 H       1  <0>         0.0636
     56 H17        24.3198   21.2112   37.5169 H       1  <0>         0.0625
     57 H18        24.7765   22.6949   35.6011 H       1  <0>         0.0624
     58 H19        27.3377   24.6243   35.6477 H       1  <0>         0.0626
     59 H20        28.0495   26.2528   33.9199 H       1  <0>         0.0660
     60 H21        28.2480   19.5784   37.2062 H       1  <0>         0.0632
     61 H22        26.4028   17.7967   42.4725 H       1  <0>         0.0576
     62 H23        27.0771   19.4534   42.1696 H       1  <0>         0.0576
     63 H24        26.2271   17.4570   40.2745 H       1  <0>         0.0526
     64 H25        27.6740   14.9407   26.9668 H       1  <0>         0.1477
     65 H26        28.7429   15.9292   27.9050 H       1  <0>         0.1477
     66 H27        25.4445   15.2788   27.0258 H       1  <0>         0.4359
     67 H28        24.7643   16.5317   28.0094 H       1  <0>         0.4359
     68 H29        28.5477   21.1179   31.4841 H       1  <0>         0.1552
     69 H30        27.9743   19.7355   39.3315 H       1  <0>         0.1494
     70 H31        24.7860   19.4632   42.5122 H       1  <0>         0.2095
@<TRIPOS>BOND
     1     1    28    1
     2     2    28    1
     3     3    28    1
     4     4    39    1
     5     5     7   ar
     6     5    15   ar
     7     6     8   ar
     8     6    15   ar
     9     7    16   ar
    10     8    16   ar
    11     9    10   ar
    12     9    17   ar
    13    10    18   ar
    14    11    12   ar
    15    11    19   ar
    16    12    20   ar
    17    13    17   ar
    18    13    21   ar
    19    14    23    1
    20    14    34    1
    21    15    24    1
    22    16    32    1
    23    17    25    1
    24    18    19    1
    25    18    21   ar
    26    19    22   ar
    27    20    31   ar
    28    20    39    1
    29    21    26    1
    30    22    27    1
    31    22    31   ar
    32    23    28    1
    33    23    33    1
    34    24    29    1
    35    24    30    2
    36    25    33   am
    37    25    36    2
    38    26    35    1
    39    26    37    2
    40    27    32   am
    41    27    38    2
    42     1    40    1
    43     1    41    1
    44     1    42    1
    45     2    43    1
    46     2    44    1
    47     2    45    1
    48     3    46    1
    49     3    47    1
    50     3    48    1
    51     4    49    1
    52     4    50    1
    53     4    51    1
    54     5    52    1
    55     6    53    1
    56     7    54    1
    57     8    55    1
    58     9    56    1
    59    10    57    1
    60    11    58    1
    61    12    59    1
    62    13    60    1
    63    14    61    1
    64    14    62    1
    65    23    63    1
    66    29    64    1
    67    29    65    1
    68    30    66    1
    69    30    67    1
    70    32    68    1
    71    33    69    1
    72    34    70    1
@<TRIPOS>SUBSTRUCTURE
     1 <0>         1 TEMP              0 ****  ****    0 ROOT

