
##########                                Name:        ONO_501_2AYW
##########                    Molecular_Weight:             533.584
##########                DOCK_Rotatable_Bonds:                  12
##########                       Formal_Charge:          -0.0004998
##########                     HBond_Acceptors:                  11
##########                        HBond_Donors:                   7
##########                         Heavy_Atoms:                  39
##########                            HA_RMSDs:               4.204
##########                            HA_RMSDh:               4.173
##########                            HA_RMSDm:               3.804
##########                          Grid_Score:          -74.864670
##########                     Grid_vdw_energy:          -44.443291
##########                      Grid_es_energy:          -30.421383
##########           Internal_energy_repulsive:           19.915327

@<TRIPOS>MOLECULE
ONO_501_2AYW
 70 72 1 0 0
SMALL
USER_CHARGES


@<TRIPOS>ATOM
      1 C1         17.0196   23.8995   29.7313 C.3     1  <0>        -0.0583
      2 C2         17.8956   22.3220   27.8656 C.3     1  <0>        -0.0583
      3 C3         16.4163   24.2754   27.4214 C.3     1  <0>        -0.0583
      4 C4         27.4494   20.0367   36.2952 C.3     1  <0>         0.0446
      5 C5         26.6909   16.7603   29.2663 C.ar    1  <0>        -0.0452
      6 C6         28.8050   17.7240   29.8107 C.ar    1  <0>        -0.0452
      7 C7         26.0723   17.6180   30.1601 C.ar    1  <0>        -0.0397
      8 C8         28.1844   18.5757   30.6992 C.ar    1  <0>        -0.0397
      9 C9         23.1382   23.7115   29.8804 C.ar    1  <0>        -0.0490
     10 C10        23.9889   23.3582   30.9186 C.ar    1  <0>        -0.0526
     11 C11        24.1638   22.8013   34.3021 C.ar    1  <0>        -0.0479
     12 C12        24.8498   22.4428   35.4527 C.ar    1  <0>        -0.0118
     13 C13        21.4179   22.3118   30.8205 C.ar    1  <0>        -0.0402
     14 C14        18.7951   26.0550   27.5603 C.3     1  <0>         0.0631
     15 C15        28.0669   16.7781   29.1062 C.ar    1  <0>         0.0611
     16 C16        26.8076   18.5267   30.8890 C.ar    1  <0>         0.0338
     17 C17        21.8581   23.2740   29.8703 C.ar    1  <0>         0.0373
     18 C18        23.5340   22.5329   31.9420 C.ar    1  <0>        -0.0068
     19 C19        24.4632   22.2110   33.0280 C.ar    1  <0>         0.0134
     20 C20        25.8228   21.4548   35.3203 C.ar    1  <0>         0.1683
     21 C21        22.2343   21.9629   31.8565 C.ar    1  <0>         0.0058
     22 C22        25.3840   21.2388   33.0020 C.ar    1  <0>         0.1362
     23 C23        18.8409   24.6535   28.0606 C.3     1  <0>         0.0513
     24 C24        28.7180   15.8441   28.1948 C.cat   1  <0>         0.2605
     25 C25        20.9727   23.5618   28.8027 C.2     1  <0>         0.2444
     26 C26        21.6877   21.0602   32.9355 C.2     1  <0>         0.0723
     27 C27        25.9365   20.6049   31.8368 C.2     1  <0>         0.2673
     28 C28        17.5766   23.7818   28.2713 C.3     1  <0>        -0.0172
     29 N1         28.0680   14.7904   27.7143 N.pl3   1  <0>        -0.3060
     30 N2         29.9789   16.0300   27.8323 N.pl3   1  <0>        -0.2158
     31 N3         26.0994   20.8731   34.1313 N.ar    1  <0>        -0.2182
     32 N4         26.1502   19.2837   31.8639 N.am    1  <0>        -0.2802
     33 N5         19.9250   24.4092   29.0629 N.am    1  <0>        -0.3058
     34 O1         19.0315   26.1958   26.1379 O.3     1  <0>        -0.3932
     35 O2         21.7839   21.4317   34.1121 O.co2   1  <0>        -0.5446
     36 O3         21.3839   23.0277   27.7648 O.2     1  <0>        -0.2702
     37 O4         21.1295   20.0183   32.5928 O.co2   1  <0>        -0.5446
     38 O5         26.3325   21.2536   30.9632 O.2     1  <0>        -0.2682
     39 O6         26.4582   21.0609   36.4484 O.3     1  <0>        -0.3315
     40 H1         16.8124   24.9550   29.9614 H       1  <0>         0.0235
     41 H2         16.0907   23.3166   29.8173 H       1  <0>         0.0235
     42 H3         17.7645   23.5091   30.4403 H       1  <0>         0.0235
     43 H4         18.2813   22.3031   26.8355 H       1  <0>         0.0235
     44 H5         18.6531   21.9091   28.5480 H       1  <0>         0.0235
     45 H6         16.9792   21.7165   27.9250 H       1  <0>         0.0235
     46 H7         16.6972   24.2369   26.3586 H       1  <0>         0.0235
     47 H8         15.5386   23.6347   27.5919 H       1  <0>         0.0235
     48 H9         16.1735   25.3117   27.6990 H       1  <0>         0.0235
     49 H10        27.8917   19.8042   37.2751 H       1  <0>         0.0529
     50 H11        26.9806   19.1321   35.8807 H       1  <0>         0.0529
     51 H12        28.2366   20.3879   35.6118 H       1  <0>         0.0529
     52 H13        26.0945   16.0702   28.6879 H       1  <0>         0.0627
     53 H14        29.8723   17.7915   29.6602 H       1  <0>         0.0627
     54 H15        25.0008   17.5742   30.2873 H       1  <0>         0.0636
     55 H16        28.7744   19.2895   31.2548 H       1  <0>         0.0636
     56 H17        23.4994   24.3378   29.0781 H       1  <0>         0.0625
     57 H18        25.0049   23.7241   30.9320 H       1  <0>         0.0624
     58 H19        23.3831   23.5449   34.3661 H       1  <0>         0.0626
     59 H20        24.6398   22.9068   36.4050 H       1  <0>         0.0660
     60 H21        20.4420   21.8595   30.7225 H       1  <0>         0.0632
     61 H22        17.7939   26.4564   27.7761 H       1  <0>         0.0576
     62 H23        19.5728   26.6261   28.0884 H       1  <0>         0.0576
     63 H24        19.0938   24.2065   27.0878 H       1  <0>         0.0526
     64 H25        28.5308   14.1579   27.0931 H       1  <0>         0.1477
     65 H26        27.1157   14.6294   27.9736 H       1  <0>         0.1477
     66 H27        30.4206   15.3839   27.2098 H       1  <0>         0.4359
     67 H28        30.4888   16.8163   28.1813 H       1  <0>         0.4359
     68 H29        25.8052   18.7884   32.6611 H       1  <0>         0.1552
     69 H30        19.8849   24.8760   29.9463 H       1  <0>         0.1494
     70 H31        18.2564   26.5542   25.7215 H       1  <0>         0.2095
@<TRIPOS>BOND
     1     1    28    1
     2     2    28    1
     3     3    28    1
     4     4    39    1
     5     5     7   ar
     6     5    15   ar
     7     6     8   ar
     8     6    15   ar
     9     7    16   ar
    10     8    16   ar
    11     9    10   ar
    12     9    17   ar
    13    10    18   ar
    14    11    12   ar
    15    11    19   ar
    16    12    20   ar
    17    13    17   ar
    18    13    21   ar
    19    14    23    1
    20    14    34    1
    21    15    24    1
    22    16    32    1
    23    17    25    1
    24    18    19    1
    25    18    21   ar
    26    19    22   ar
    27    20    31   ar
    28    20    39    1
    29    21    26    1
    30    22    27    1
    31    22    31   ar
    32    23    28    1
    33    23    33    1
    34    24    29    1
    35    24    30    2
    36    25    33   am
    37    25    36    2
    38    26    35    1
    39    26    37    2
    40    27    32   am
    41    27    38    2
    42     1    40    1
    43     1    41    1
    44     1    42    1
    45     2    43    1
    46     2    44    1
    47     2    45    1
    48     3    46    1
    49     3    47    1
    50     3    48    1
    51     4    49    1
    52     4    50    1
    53     4    51    1
    54     5    52    1
    55     6    53    1
    56     7    54    1
    57     8    55    1
    58     9    56    1
    59    10    57    1
    60    11    58    1
    61    12    59    1
    62    13    60    1
    63    14    61    1
    64    14    62    1
    65    23    63    1
    66    29    64    1
    67    29    65    1
    68    30    66    1
    69    30    67    1
    70    32    68    1
    71    33    69    1
    72    34    70    1
@<TRIPOS>SUBSTRUCTURE
     1 <0>         1 TEMP              0 ****  ****    0 ROOT

