
##########                                Name:        ONO_501_2AYW
##########                    Molecular_Weight:             533.584
##########                DOCK_Rotatable_Bonds:                  12
##########                       Formal_Charge:          -0.0004998
##########                     HBond_Acceptors:                  11
##########                        HBond_Donors:                   7
##########                         Heavy_Atoms:                  39
##########                            HA_RMSDs:              11.259
##########                            HA_RMSDh:              10.069
##########                            HA_RMSDm:               7.418
##########                          Grid_Score:          -74.917526
##########                     Grid_vdw_energy:          -39.054119
##########                      Grid_es_energy:          -35.863411
##########           Internal_energy_repulsive:           15.407173

@<TRIPOS>MOLECULE
ONO_501_2AYW
 70 72 1 0 0
SMALL
USER_CHARGES


@<TRIPOS>ATOM
      1 C1         32.6794   21.5627   40.6621 C.3     1  <0>        -0.0583
      2 C2         33.4132   20.1032   38.6451 C.3     1  <0>        -0.0583
      3 C3         34.1859   19.6995   40.9778 C.3     1  <0>        -0.0583
      4 C4         22.9738   22.3905   31.6331 C.3     1  <0>         0.0446
      5 C5         26.8786   17.7307   28.7118 C.ar    1  <0>        -0.0452
      6 C6         28.9653   17.5151   29.8491 C.ar    1  <0>        -0.0452
      7 C7         26.4840   18.6951   29.6236 C.ar    1  <0>        -0.0397
      8 C8         28.5677   18.4756   30.7542 C.ar    1  <0>        -0.0397
      9 C9         28.0074   18.6853   37.4967 C.ar    1  <0>        -0.0490
     10 C10        27.0114   19.1864   36.6702 C.ar    1  <0>        -0.0526
     11 C11        25.2598   21.7745   35.7128 C.ar    1  <0>        -0.0479
     12 C12        24.2955   22.4635   34.9928 C.ar    1  <0>        -0.0118
     13 C13        29.5056   20.4071   36.7264 C.ar    1  <0>        -0.0402
     14 C14        31.4684   18.5131   41.6357 C.3     1  <0>         0.0631
     15 C15        28.1081   17.1040   28.8332 C.ar    1  <0>         0.0611
     16 C16        27.3158   19.0728   30.6547 C.ar    1  <0>         0.0338
     17 C17        29.1965   19.3233   37.5937 C.ar    1  <0>         0.0373
     18 C18        27.2409   20.3354   35.9201 C.ar    1  <0>        -0.0068
     19 C19        26.1481   20.8382   35.0837 C.ar    1  <0>         0.0134
     20 C20        24.2514   22.2295   33.6203 C.ar    1  <0>         0.1683
     21 C21        28.5355   20.9229   35.9175 C.ar    1  <0>         0.0058
     22 C22        26.0629   20.7083   33.7535 C.ar    1  <0>         0.1362
     23 C23        31.7939   19.1575   40.3336 C.3     1  <0>         0.0513
     24 C24        28.5019   16.0589   27.8953 C.cat   1  <0>         0.2605
     25 C25        30.2608   18.8163   38.3791 C.2     1  <0>         0.2444
     26 C26        28.8435   22.1685   35.1229 C.2     1  <0>         0.0723
     27 C27        26.7481   19.7462   32.9351 C.2     1  <0>         0.2673
     28 C28        32.9922   20.1204   40.1351 C.3     1  <0>        -0.0172
     29 N1         27.6120   15.4914   27.0891 N.pl3   1  <0>        -0.3060
     30 N2         29.7615   15.6522   27.8347 N.pl3   1  <0>        -0.2158
     31 N3         25.0970   21.3683   33.0105 N.ar    1  <0>        -0.2182
     32 N4         26.8216   19.9603   31.6157 N.am    1  <0>        -0.2802
     33 N5         30.5882   19.5070   39.5190 N.am    1  <0>        -0.3058
     34 O1         31.9862   17.1687   41.7897 O.3     1  <0>        -0.3932
     35 O2         28.3828   23.2453   35.5228 O.co2   1  <0>        -0.5446
     36 O3         30.6579   17.7459   37.9017 O.2     1  <0>        -0.2702
     37 O4         29.5772   22.0635   34.1404 O.co2   1  <0>        -0.5446
     38 O5         27.0828   18.7368   33.3933 O.2     1  <0>        -0.2682
     39 O6         23.3494   22.9391   32.9031 O.3     1  <0>        -0.3315
     40 H1         32.3874   21.5113   41.7214 H       1  <0>         0.0235
     41 H2         33.5751   22.1929   40.5590 H       1  <0>         0.0235
     42 H3         31.8561   21.9966   40.0756 H       1  <0>         0.0235
     43 H4         33.6189   19.0684   38.3336 H       1  <0>         0.0235
     44 H5         32.6004   20.5164   38.0298 H       1  <0>         0.0235
     45 H6         34.3193   20.7127   38.5132 H       1  <0>         0.0235
     46 H7         34.4985   18.6847   40.6905 H       1  <0>         0.0235
     47 H8         35.0174   20.4000   40.8112 H       1  <0>         0.0235
     48 H9         33.9054   19.7093   42.0414 H       1  <0>         0.0235
     49 H10        22.2409   23.0529   31.1493 H       1  <0>         0.0529
     50 H11        23.8649   22.3013   30.9945 H       1  <0>         0.0529
     51 H12        22.5276   21.3961   31.7810 H       1  <0>         0.0529
     52 H13        26.2210   17.4642   27.8975 H       1  <0>         0.0627
     53 H14        29.9498   17.0782   29.9292 H       1  <0>         0.0627
     54 H15        25.5126   19.1567   29.5253 H       1  <0>         0.0636
     55 H16        29.2365   18.7679   31.5503 H       1  <0>         0.0636
     56 H17        27.8327   17.7832   38.0642 H       1  <0>         0.0625
     57 H18        26.0574   18.6839   36.6092 H       1  <0>         0.0624
     58 H19        25.3450   21.9468   36.7755 H       1  <0>         0.0626
     59 H20        23.6119   23.1481   35.4728 H       1  <0>         0.0660
     60 H21        30.5035   20.8199   36.7082 H       1  <0>         0.0632
     61 H22        31.9004   19.1332   42.4350 H       1  <0>         0.0576
     62 H23        30.3729   18.4632   41.7216 H       1  <0>         0.0576
     63 H24        32.3143   18.2834   39.9149 H       1  <0>         0.0526
     64 H25        27.8985   14.7737   26.4544 H       1  <0>         0.1477
     65 H26        26.6555   15.7818   27.1168 H       1  <0>         0.1477
     66 H27        30.0243   14.9328   27.1917 H       1  <0>         0.4359
     67 H28        30.4494   16.0648   28.4319 H       1  <0>         0.4359
     68 H29        26.4900   20.8435   31.2841 H       1  <0>         0.1552
     69 H30        30.0054   20.2644   39.8131 H       1  <0>         0.1494
     70 H31        31.5697   16.7518   42.5348 H       1  <0>         0.2095
@<TRIPOS>BOND
     1     1    28    1
     2     2    28    1
     3     3    28    1
     4     4    39    1
     5     5     7   ar
     6     5    15   ar
     7     6     8   ar
     8     6    15   ar
     9     7    16   ar
    10     8    16   ar
    11     9    10   ar
    12     9    17   ar
    13    10    18   ar
    14    11    12   ar
    15    11    19   ar
    16    12    20   ar
    17    13    17   ar
    18    13    21   ar
    19    14    23    1
    20    14    34    1
    21    15    24    1
    22    16    32    1
    23    17    25    1
    24    18    19    1
    25    18    21   ar
    26    19    22   ar
    27    20    31   ar
    28    20    39    1
    29    21    26    1
    30    22    27    1
    31    22    31   ar
    32    23    28    1
    33    23    33    1
    34    24    29    1
    35    24    30    2
    36    25    33   am
    37    25    36    2
    38    26    35    1
    39    26    37    2
    40    27    32   am
    41    27    38    2
    42     1    40    1
    43     1    41    1
    44     1    42    1
    45     2    43    1
    46     2    44    1
    47     2    45    1
    48     3    46    1
    49     3    47    1
    50     3    48    1
    51     4    49    1
    52     4    50    1
    53     4    51    1
    54     5    52    1
    55     6    53    1
    56     7    54    1
    57     8    55    1
    58     9    56    1
    59    10    57    1
    60    11    58    1
    61    12    59    1
    62    13    60    1
    63    14    61    1
    64    14    62    1
    65    23    63    1
    66    29    64    1
    67    29    65    1
    68    30    66    1
    69    30    67    1
    70    32    68    1
    71    33    69    1
    72    34    70    1
@<TRIPOS>SUBSTRUCTURE
     1 <0>         1 TEMP              0 ****  ****    0 ROOT

