
##########                                Name:        ONO_501_2AYW
##########                    Molecular_Weight:             533.584
##########                DOCK_Rotatable_Bonds:                  12
##########                       Formal_Charge:          -0.0004998
##########                     HBond_Acceptors:                  11
##########                        HBond_Donors:                   7
##########                         Heavy_Atoms:                  39
##########                            HA_RMSDs:               0.431
##########                            HA_RMSDh:               0.431
##########                            HA_RMSDm:               0.431
##########                          Grid_Score:          -74.209320
##########                     Grid_vdw_energy:          -55.250214
##########                      Grid_es_energy:          -18.959108
##########           Internal_energy_repulsive:           35.161777

@<TRIPOS>MOLECULE
ONO_501_2AYW
 70 72 1 0 0
SMALL
USER_CHARGES


@<TRIPOS>ATOM
      1 C1         20.5341   24.1111   22.9616 C.3     1  <0>        -0.0583
      2 C2         22.9261   23.1131   23.1013 C.3     1  <0>        -0.0583
      3 C3         22.3688   25.1480   21.7784 C.3     1  <0>        -0.0583
      4 C4         23.0431   17.2305   34.0183 C.3     1  <0>         0.0446
      5 C5         27.1547   15.7495   28.3060 C.ar    1  <0>        -0.0452
      6 C6         28.5374   17.6231   28.8278 C.ar    1  <0>        -0.0452
      7 C7         26.0519   16.4308   28.7927 C.ar    1  <0>        -0.0397
      8 C8         27.4365   18.2970   29.3111 C.ar    1  <0>        -0.0397
      9 C9         23.4905   24.2122   28.9457 C.ar    1  <0>        -0.0490
     10 C10        23.4532   23.3222   30.0100 C.ar    1  <0>        -0.0526
     11 C11        22.0422   21.3293   31.8729 C.ar    1  <0>        -0.0479
     12 C12        21.7653   20.4558   32.9138 C.ar    1  <0>        -0.0118
     13 C13        23.0777   22.3955   27.4187 C.ar    1  <0>        -0.0402
     14 C14        22.0633   26.7101   24.4244 C.3     1  <0>         0.0631
     15 C15        28.4154   16.3222   28.3495 C.ar    1  <0>         0.0611
     16 C16        26.1790   17.7032   29.3050 C.ar    1  <0>         0.0338
     17 C17        23.2249   23.7837   27.6903 C.ar    1  <0>         0.0373
     18 C18        23.1647   21.9798   29.7860 C.ar    1  <0>        -0.0068
     19 C19        23.1116   21.0867   30.9461 C.ar    1  <0>         0.0134
     20 C20        22.5540   19.3106   32.9979 C.ar    1  <0>         0.1683
     21 C21        23.0239   21.5069   28.4526 C.ar    1  <0>         0.0058
     22 C22        23.7903   19.9395   31.0771 C.ar    1  <0>         0.1362
     23 C23        22.4105   25.2667   24.3111 C.3     1  <0>         0.0513
     24 C24        29.5802   15.5843   27.8745 C.cat   1  <0>         0.2605
     25 C25        23.3082   24.6440   26.5679 C.2     1  <0>         0.2444
     26 C26        22.7119   20.0620   28.1486 C.2     1  <0>         0.0723
     27 C27        24.9721   19.5497   30.3587 C.2     1  <0>         0.2673
     28 C28        22.0700   24.4029   23.0699 C.3     1  <0>        -0.0172
     29 N1         29.5187   14.2763   27.6528 N.pl3   1  <0>        -0.3060
     30 N2         30.7283   16.2100   27.6593 N.pl3   1  <0>        -0.2158
     31 N3         23.5494   19.0572   32.1183 N.ar    1  <0>        -0.2182
     32 N4         25.0581   18.2974   29.8933 N.am    1  <0>        -0.2802
     33 N5         22.3327   24.5270   25.6097 N.am    1  <0>        -0.3058
     34 O1         22.8167   27.4349   25.4274 O.3     1  <0>        -0.3932
     35 O2         21.7505   19.5380   28.7255 O.co2   1  <0>        -0.5446
     36 O3         24.2506   25.4322   26.7161 O.2     1  <0>        -0.2702
     37 O4         23.3986   19.4848   27.3061 O.co2   1  <0>        -0.5446
     38 O5         25.8869   20.2590   30.3295 O.2     1  <0>        -0.2682
     39 O6         22.2543   18.4269   33.9781 O.3     1  <0>        -0.3315
     40 H1         19.9802   25.0614   22.9435 H       1  <0>         0.0235
     41 H2         20.3317   23.5514   22.0366 H       1  <0>         0.0235
     42 H3         20.2122   23.5156   23.8286 H       1  <0>         0.0235
     43 H4         23.9904   23.3805   23.1776 H       1  <0>         0.0235
     44 H5         22.6382   22.5032   23.9703 H       1  <0>         0.0235
     45 H6         22.7577   22.5389   22.1783 H       1  <0>         0.0235
     46 H7         23.4369   25.4086   21.7436 H       1  <0>         0.0235
     47 H8         22.1197   24.5073   20.9197 H       1  <0>         0.0235
     48 H9         21.7657   26.0670   21.7376 H       1  <0>         0.0235
     49 H10        22.7066   16.5968   34.8521 H       1  <0>         0.0529
     50 H11        22.9267   16.6829   33.0716 H       1  <0>         0.0529
     51 H12        24.1013   17.4940   34.1620 H       1  <0>         0.0529
     52 H13        27.0308   14.7613   27.8881 H       1  <0>         0.0627
     53 H14        29.5022   18.1085   28.8203 H       1  <0>         0.0627
     54 H15        25.0807   15.9590   28.7705 H       1  <0>         0.0636
     55 H16        27.5518   19.2982   29.6993 H       1  <0>         0.0636
     56 H17        23.7322   25.2502   29.1203 H       1  <0>         0.0625
     57 H18        23.6484   23.6719   31.0130 H       1  <0>         0.0624
     58 H19        21.4371   22.2161   31.7563 H       1  <0>         0.0626
     59 H20        20.9767   20.6537   33.6246 H       1  <0>         0.0660
     60 H21        23.0088   22.0465   26.3990 H       1  <0>         0.0632
     61 H22        22.2612   27.1808   23.4501 H       1  <0>         0.0576
     62 H23        20.9979   26.7798   24.6887 H       1  <0>         0.0576
     63 H24        23.4561   25.4366   24.0148 H       1  <0>         0.0526
     64 H25        30.3280   13.7851   27.3305 H       1  <0>         0.1477
     65 H26        28.6631   13.7825   27.8081 H       1  <0>         0.1477
     66 H27        31.5242   15.6976   27.3368 H       1  <0>         0.4359
     67 H28        30.7987   17.1946   27.8193 H       1  <0>         0.4359
     68 H29        24.2387   17.7300   29.9746 H       1  <0>         0.1552
     69 H30        21.5487   23.9313   25.7839 H       1  <0>         0.1494
     70 H31        22.6229   28.3625   25.3608 H       1  <0>         0.2095
@<TRIPOS>BOND
     1     1    28    1
     2     2    28    1
     3     3    28    1
     4     4    39    1
     5     5     7   ar
     6     5    15   ar
     7     6     8   ar
     8     6    15   ar
     9     7    16   ar
    10     8    16   ar
    11     9    10   ar
    12     9    17   ar
    13    10    18   ar
    14    11    12   ar
    15    11    19   ar
    16    12    20   ar
    17    13    17   ar
    18    13    21   ar
    19    14    23    1
    20    14    34    1
    21    15    24    1
    22    16    32    1
    23    17    25    1
    24    18    19    1
    25    18    21   ar
    26    19    22   ar
    27    20    31   ar
    28    20    39    1
    29    21    26    1
    30    22    27    1
    31    22    31   ar
    32    23    28    1
    33    23    33    1
    34    24    29    1
    35    24    30    2
    36    25    33   am
    37    25    36    2
    38    26    35    1
    39    26    37    2
    40    27    32   am
    41    27    38    2
    42     1    40    1
    43     1    41    1
    44     1    42    1
    45     2    43    1
    46     2    44    1
    47     2    45    1
    48     3    46    1
    49     3    47    1
    50     3    48    1
    51     4    49    1
    52     4    50    1
    53     4    51    1
    54     5    52    1
    55     6    53    1
    56     7    54    1
    57     8    55    1
    58     9    56    1
    59    10    57    1
    60    11    58    1
    61    12    59    1
    62    13    60    1
    63    14    61    1
    64    14    62    1
    65    23    63    1
    66    29    64    1
    67    29    65    1
    68    30    66    1
    69    30    67    1
    70    32    68    1
    71    33    69    1
    72    34    70    1
@<TRIPOS>SUBSTRUCTURE
     1 <0>         1 TEMP              0 ****  ****    0 ROOT

