
##########                                Name:        ONO_501_2AYW
##########                    Molecular_Weight:             533.584
##########                DOCK_Rotatable_Bonds:                  12
##########                       Formal_Charge:          -0.0004998
##########                     HBond_Acceptors:                  11
##########                        HBond_Donors:                   7
##########                         Heavy_Atoms:                  39
##########                            HA_RMSDs:               0.513
##########                            HA_RMSDh:               0.513
##########                            HA_RMSDm:               0.513
##########                          Grid_Score:          -75.998276
##########                     Grid_vdw_energy:          -56.683182
##########                      Grid_es_energy:          -19.315098
##########           Internal_energy_repulsive:           32.345043

@<TRIPOS>MOLECULE
ONO_501_2AYW
 70 72 1 0 0
SMALL
USER_CHARGES


@<TRIPOS>ATOM
      1 C1         20.4016   24.2674   23.3290 C.3     1  <0>        -0.0583
      2 C2         22.8560   23.4234   23.3549 C.3     1  <0>        -0.0583
      3 C3         22.1315   25.4840   22.1591 C.3     1  <0>        -0.0583
      4 C4         23.0839   17.0183   34.0276 C.3     1  <0>         0.0446
      5 C5         27.2014   15.6139   28.5357 C.ar    1  <0>        -0.0452
      6 C6         28.5140   17.5753   28.8884 C.ar    1  <0>        -0.0452
      7 C7         26.0939   16.2650   29.0522 C.ar    1  <0>        -0.0397
      8 C8         27.4085   18.2190   29.4018 C.ar    1  <0>        -0.0397
      9 C9         23.4604   24.2042   29.2465 C.ar    1  <0>        -0.0490
     10 C10        23.4478   23.2643   30.2677 C.ar    1  <0>        -0.0526
     11 C11        22.0721   21.2230   32.1018 C.ar    1  <0>        -0.0479
     12 C12        21.8193   20.3077   33.1125 C.ar    1  <0>        -0.0118
     13 C13        22.9241   22.4761   27.6564 C.ar    1  <0>        -0.0402
     14 C14        21.8445   26.8965   24.8719 C.3     1  <0>         0.0631
     15 C15        28.4319   16.2479   28.4797 C.ar    1  <0>         0.0611
     16 C16        26.1843   17.5661   29.4958 C.ar    1  <0>         0.0338
     17 C17        23.1238   23.8449   27.9864 C.ar    1  <0>         0.0373
     18 C18        23.1106   21.9426   29.9942 C.ar    1  <0>        -0.0068
     19 C19        23.0866   20.9955   31.1116 C.ar    1  <0>         0.0134
     20 C20        22.5749   19.1375   33.1019 C.ar    1  <0>         0.1683
     21 C21        22.8937   21.5396   28.6481 C.ar    1  <0>         0.0058
     22 C22        23.7345   19.8241   31.1532 C.ar    1  <0>         0.1362
     23 C23        22.2368   25.4714   24.6927 C.3     1  <0>         0.0513
     24 C24        29.6047   15.5439   27.9740 C.cat   1  <0>         0.2605
     25 C25        23.1788   24.7566   26.9037 C.2     1  <0>         0.2444
     26 C26        22.5262   20.1200   28.2910 C.2     1  <0>         0.0723
     27 C27        24.8669   19.4360   30.3582 C.2     1  <0>         0.2673
     28 C28        21.9180   24.6538   23.4150 C.3     1  <0>        -0.0172
     29 N1         29.5975   14.2249   27.8181 N.pl3   1  <0>        -0.3060
     30 N2         30.7060   16.2123   27.6640 N.pl3   1  <0>        -0.2158
     31 N3         23.5175   18.8990   32.1621 N.ar    1  <0>        -0.2182
     32 N4         25.0688   18.1345   30.1187 N.am    1  <0>        -0.2802
     33 N5         22.1889   24.6722   25.9569 N.am    1  <0>        -0.3058
     34 O1         22.6956   27.6479   25.7720 O.3     1  <0>        -0.3932
     35 O2         21.7264   19.5220   29.0220 O.co2   1  <0>        -0.5446
     36 O3         24.1148   25.5483   27.0727 O.2     1  <0>        -0.2702
     37 O4         23.0024   19.6383   27.2635 O.co2   1  <0>        -0.5446
     38 O5         25.6662   20.2240   30.0737 O.2     1  <0>        -0.2682
     39 O6         22.2961   18.2157   34.0527 O.3     1  <0>        -0.3315
     40 H1         19.7872   25.1787   23.3764 H       1  <0>         0.0235
     41 H2         20.2098   23.7451   22.3801 H       1  <0>         0.0235
     42 H3         20.1434   23.6071   24.1699 H       1  <0>         0.0235
     43 H4         23.9026   23.7560   23.4194 H       1  <0>         0.0235
     44 H5         22.6328   22.7509   24.1963 H       1  <0>         0.0235
     45 H6         22.6991   22.8888   22.4065 H       1  <0>         0.0235
     46 H7         23.1791   25.8161   22.1121 H       1  <0>         0.0235
     47 H8         21.9002   24.8745   21.2731 H       1  <0>         0.0235
     48 H9         21.4694   26.3622   22.1833 H       1  <0>         0.0235
     49 H10        22.7654   16.3521   34.8429 H       1  <0>         0.0529
     50 H11        22.9454   16.5087   33.0627 H       1  <0>         0.0529
     51 H12        24.1455   17.2752   34.1577 H       1  <0>         0.0529
     52 H13        27.1049   14.6013   28.1726 H       1  <0>         0.0627
     53 H14        29.4510   18.1055   28.8026 H       1  <0>         0.0627
     54 H15        25.1480   15.7468   29.1079 H       1  <0>         0.0636
     55 H16        27.4941   19.2427   29.7350 H       1  <0>         0.0636
     56 H17        23.7399   25.2256   29.4585 H       1  <0>         0.0625
     57 H18        23.6999   23.5593   31.2756 H       1  <0>         0.0624
     58 H19        21.4900   22.1317   32.0583 H       1  <0>         0.0626
     59 H20        21.0731   20.4932   33.8709 H       1  <0>         0.0660
     60 H21        22.7973   22.1793   26.6257 H       1  <0>         0.0632
     61 H22        21.8853   27.3829   23.8862 H       1  <0>         0.0576
     62 H23        20.8235   26.9152   25.2807 H       1  <0>         0.0576
     63 H24        23.2751   25.6878   24.4008 H       1  <0>         0.0526
     64 H25        30.4117   13.7577   27.4734 H       1  <0>         0.1477
     65 H26        28.7778   13.6991   28.0454 H       1  <0>         0.1477
     66 H27        31.5079   15.7232   27.3210 H       1  <0>         0.4359
     67 H28        30.7352   17.2059   27.7731 H       1  <0>         0.4359
     68 H29        24.3499   17.5057   30.4151 H       1  <0>         0.1552
     69 H30        21.4145   24.0599   26.1162 H       1  <0>         0.1494
     70 H31        22.3950   28.5480   25.8153 H       1  <0>         0.2095
@<TRIPOS>BOND
     1     1    28    1
     2     2    28    1
     3     3    28    1
     4     4    39    1
     5     5     7   ar
     6     5    15   ar
     7     6     8   ar
     8     6    15   ar
     9     7    16   ar
    10     8    16   ar
    11     9    10   ar
    12     9    17   ar
    13    10    18   ar
    14    11    12   ar
    15    11    19   ar
    16    12    20   ar
    17    13    17   ar
    18    13    21   ar
    19    14    23    1
    20    14    34    1
    21    15    24    1
    22    16    32    1
    23    17    25    1
    24    18    19    1
    25    18    21   ar
    26    19    22   ar
    27    20    31   ar
    28    20    39    1
    29    21    26    1
    30    22    27    1
    31    22    31   ar
    32    23    28    1
    33    23    33    1
    34    24    29    1
    35    24    30    2
    36    25    33   am
    37    25    36    2
    38    26    35    1
    39    26    37    2
    40    27    32   am
    41    27    38    2
    42     1    40    1
    43     1    41    1
    44     1    42    1
    45     2    43    1
    46     2    44    1
    47     2    45    1
    48     3    46    1
    49     3    47    1
    50     3    48    1
    51     4    49    1
    52     4    50    1
    53     4    51    1
    54     5    52    1
    55     6    53    1
    56     7    54    1
    57     8    55    1
    58     9    56    1
    59    10    57    1
    60    11    58    1
    61    12    59    1
    62    13    60    1
    63    14    61    1
    64    14    62    1
    65    23    63    1
    66    29    64    1
    67    29    65    1
    68    30    66    1
    69    30    67    1
    70    32    68    1
    71    33    69    1
    72    34    70    1
@<TRIPOS>SUBSTRUCTURE
     1 <0>         1 TEMP              0 ****  ****    0 ROOT

