
##########                                Name:        ONO_501_2AYW
##########                    Molecular_Weight:             533.584
##########                DOCK_Rotatable_Bonds:                  12
##########                       Formal_Charge:          -0.0004998
##########                     HBond_Acceptors:                  11
##########                        HBond_Donors:                   7
##########                         Heavy_Atoms:                  39
##########                            HA_RMSDs:               0.596
##########                            HA_RMSDh:               0.596
##########                            HA_RMSDm:               0.570
##########                          Grid_Score:          -76.730019
##########                     Grid_vdw_energy:          -57.451546
##########                      Grid_es_energy:          -19.278471
##########           Internal_energy_repulsive:           33.703812

@<TRIPOS>MOLECULE
ONO_501_2AYW
 70 72 1 0 0
SMALL
USER_CHARGES


@<TRIPOS>ATOM
      1 C1         20.0688   24.6705   23.5679 C.3     1  <0>        -0.0583
      2 C2         22.3833   23.6151   23.0516 C.3     1  <0>        -0.0583
      3 C3         21.6447   25.8081   22.1314 C.3     1  <0>        -0.0583
      4 C4         22.8926   16.9196   33.7439 C.3     1  <0>         0.0446
      5 C5         27.2168   15.6201   28.3199 C.ar    1  <0>        -0.0452
      6 C6         28.5253   17.5548   28.8093 C.ar    1  <0>        -0.0452
      7 C7         26.0886   16.2653   28.7976 C.ar    1  <0>        -0.0397
      8 C8         27.3993   18.1926   29.2838 C.ar    1  <0>        -0.0397
      9 C9         23.6538   24.0820   28.9939 C.ar    1  <0>        -0.0490
     10 C10        23.5918   23.1369   30.0085 C.ar    1  <0>        -0.0526
     11 C11        21.9330   21.1278   31.8000 C.ar    1  <0>        -0.0479
     12 C12        21.6423   20.2042   32.7928 C.ar    1  <0>        -0.0118
     13 C13        22.7901   22.4595   27.4369 C.ar    1  <0>        -0.0402
     14 C14        22.1897   27.0832   24.8167 C.3     1  <0>         0.0631
     15 C15        28.4540   16.2426   28.3521 C.ar    1  <0>         0.0611
     16 C16        26.1661   17.5498   29.2893 C.ar    1  <0>         0.0338
     17 C17        23.1866   23.7867   27.7591 C.ar    1  <0>         0.0373
     18 C18        23.0693   21.8732   29.7526 C.ar    1  <0>        -0.0068
     19 C19        23.0019   20.9210   30.8640 C.ar    1  <0>         0.0134
     20 C20        22.4165   19.0464   32.8181 C.ar    1  <0>         0.1683
     21 C21        22.7089   21.5205   28.4233 C.ar    1  <0>         0.0058
     22 C22        23.6658   19.7600   30.9357 C.ar    1  <0>         0.1362
     23 C23        22.2484   25.6133   24.5866 C.3     1  <0>         0.0513
     24 C24        29.6464   15.5436   27.8869 C.cat   1  <0>         0.2605
     25 C25        23.2825   24.6994   26.6799 C.2     1  <0>         0.2444
     26 C26        22.1380   20.1648   28.0858 C.2     1  <0>         0.0723
     27 C27        24.8447   19.3937   30.2003 C.2     1  <0>         0.2673
     28 C28        21.6029   24.9159   23.3620 C.3     1  <0>        -0.0172
     29 N1         29.6362   14.2307   27.6861 N.pl3   1  <0>        -0.3060
     30 N2         30.7687   16.2103   27.6597 N.pl3   1  <0>        -0.2158
     31 N3         23.4111   18.8272   31.9285 N.ar    1  <0>        -0.2182
     32 N4         25.0234   18.1088   29.8700 N.am    1  <0>        -0.2802
     33 N5         22.1980   24.8062   25.8458 N.am    1  <0>        -0.3058
     34 O1         23.2941   27.6177   25.5873 O.3     1  <0>        -0.3932
     35 O2         21.4800   19.5756   28.9528 O.co2   1  <0>        -0.5446
     36 O3         24.3534   25.3157   26.7493 O.2     1  <0>        -0.2702
     37 O4         22.3131   19.7281   26.9486 O.co2   1  <0>        -0.5446
     38 O5         25.6888   20.1708   30.0439 O.2     1  <0>        -0.2682
     39 O6         22.1031   18.1161   33.7496 O.3     1  <0>        -0.3315
     40 H1         19.5697   25.6266   23.7843 H       1  <0>         0.0235
     41 H2         19.6417   24.2329   22.6535 H       1  <0>         0.0235
     42 H3         19.9180   23.9794   24.4103 H       1  <0>         0.0235
     43 H4         23.4496   23.8497   22.9178 H       1  <0>         0.0235
     44 H5         22.2654   22.9088   23.8867 H       1  <0>         0.0235
     45 H6         21.9891   23.1623   22.1299 H       1  <0>         0.0235
     46 H7         22.6900   26.0495   21.8884 H       1  <0>         0.0235
     47 H8         21.1829   25.2830   21.2823 H       1  <0>         0.0235
     48 H9         21.0913   26.7370   22.3332 H       1  <0>         0.0235
     49 H10        22.5444   16.2461   34.5408 H       1  <0>         0.0529
     50 H11        22.7913   16.4183   32.7700 H       1  <0>         0.0529
     51 H12        23.9483   17.1763   33.9162 H       1  <0>         0.0529
     52 H13        27.1314   14.6213   27.9180 H       1  <0>         0.0627
     53 H14        29.4703   18.0776   28.7924 H       1  <0>         0.0627
     54 H15        25.1366   15.7555   28.7846 H       1  <0>         0.0636
     55 H16        27.4756   19.2036   29.6557 H       1  <0>         0.0636
     56 H17        24.0763   25.0562   29.1909 H       1  <0>         0.0625
     57 H18        23.9496   23.3827   30.9974 H       1  <0>         0.0624
     58 H19        21.3392   22.0271   31.7290 H       1  <0>         0.0626
     59 H20        20.8542   20.3742   33.5113 H       1  <0>         0.0660
     60 H21        22.5544   22.1963   26.4163 H       1  <0>         0.0632
     61 H22        22.1949   27.5777   23.8342 H       1  <0>         0.0576
     62 H23        21.2611   27.3008   25.3647 H       1  <0>         0.0576
     63 H24        23.2622   25.6176   24.1600 H       1  <0>         0.0526
     64 H25        30.4638   13.7667   27.3703 H       1  <0>         0.1477
     65 H26        28.8008   13.7063   27.8508 H       1  <0>         0.1477
     66 H27        31.5838   15.7245   27.3440 H       1  <0>         0.4359
     67 H28        30.8006   17.1994   27.8038 H       1  <0>         0.4359
     68 H29        24.2635   17.4863   30.0575 H       1  <0>         0.1552
     69 H30        21.3511   24.3319   26.0859 H       1  <0>         0.1494
     70 H31        23.1995   28.5597   25.6657 H       1  <0>         0.2095
@<TRIPOS>BOND
     1     1    28    1
     2     2    28    1
     3     3    28    1
     4     4    39    1
     5     5     7   ar
     6     5    15   ar
     7     6     8   ar
     8     6    15   ar
     9     7    16   ar
    10     8    16   ar
    11     9    10   ar
    12     9    17   ar
    13    10    18   ar
    14    11    12   ar
    15    11    19   ar
    16    12    20   ar
    17    13    17   ar
    18    13    21   ar
    19    14    23    1
    20    14    34    1
    21    15    24    1
    22    16    32    1
    23    17    25    1
    24    18    19    1
    25    18    21   ar
    26    19    22   ar
    27    20    31   ar
    28    20    39    1
    29    21    26    1
    30    22    27    1
    31    22    31   ar
    32    23    28    1
    33    23    33    1
    34    24    29    1
    35    24    30    2
    36    25    33   am
    37    25    36    2
    38    26    35    1
    39    26    37    2
    40    27    32   am
    41    27    38    2
    42     1    40    1
    43     1    41    1
    44     1    42    1
    45     2    43    1
    46     2    44    1
    47     2    45    1
    48     3    46    1
    49     3    47    1
    50     3    48    1
    51     4    49    1
    52     4    50    1
    53     4    51    1
    54     5    52    1
    55     6    53    1
    56     7    54    1
    57     8    55    1
    58     9    56    1
    59    10    57    1
    60    11    58    1
    61    12    59    1
    62    13    60    1
    63    14    61    1
    64    14    62    1
    65    23    63    1
    66    29    64    1
    67    29    65    1
    68    30    66    1
    69    30    67    1
    70    32    68    1
    71    33    69    1
    72    34    70    1
@<TRIPOS>SUBSTRUCTURE
     1 <0>         1 TEMP              0 ****  ****    0 ROOT

