
##########                                Name:        D2B_187_3NXO
##########                    Molecular_Weight:             326.398
##########                DOCK_Rotatable_Bonds:                   5
##########                       Formal_Charge:         0.000600189
##########                     HBond_Acceptors:                   6
##########                        HBond_Donors:                   4
##########                         Heavy_Atoms:                  24
##########                            HA_RMSDs:               0.450
##########                            HA_RMSDh:               0.450
##########                            HA_RMSDm:               0.450
##########                          Grid_Score:          -40.579956
##########                     Grid_vdw_energy:          -40.568024
##########                      Grid_es_energy:           -0.011930
##########           Internal_energy_repulsive:           17.969446

@<TRIPOS>MOLECULE
D2B_187_3NXO
 46 48 1 0 0
SMALL
USER_CHARGES


@<TRIPOS>ATOM
      1 C1         15.7405    5.1124   -4.4422 C.3     1  <0>        -0.0621
      2 C2         15.7973    7.5968   -3.6944 C.3     1  <0>        -0.0621
      3 C3         14.8570    1.7407   -2.7318 C.3     1  <0>         0.0430
      4 C4         11.3784    5.4385   -1.8805 C.ar    1  <0>        -0.0613
      5 C5         11.2922    4.0401   -1.9043 C.ar    1  <0>        -0.0593
      6 C6         12.6403    6.0407   -1.8817 C.ar    1  <0>        -0.0558
      7 C7         12.4423    3.2497   -1.9768 C.ar    1  <0>        -0.0314
      8 C8         15.0346    4.9415    0.9228 C.2     1  <0>         0.0527
      9 C9         16.0509    6.0981   -1.0309 C.3     1  <0>        -0.0179
     10 C10        13.8033    5.2605   -1.9039 C.ar    1  <0>        -0.0138
     11 C11        13.7227    3.8561   -2.0204 C.ar    1  <0>         0.0793
     12 C12        15.9188    5.7866    0.3465 C.2     1  <0>        -0.0091
     13 C13        16.8206    6.2267    1.3578 C.ar    1  <0>         0.0692
     14 C14        17.9000    7.1414    1.5068 C.ar    1  <0>         0.1314
     15 C15        16.3045    5.7283    2.5378 C.ar    1  <0>         0.1866
     16 C16        17.8370    6.8757    3.7952 C.ar    1  <0>         0.2166
     17 C17        15.1974    6.2565   -3.5184 C.3     1  <0>        -0.0395
     18 C18        15.0489    5.8812   -2.0116 C.3     1  <0>        -0.0070
     19 N1         18.4834    7.8089    0.4964 N.pl3   1  <0>        -0.3425
     20 N2         18.2800    7.1895    5.0126 N.pl3   1  <0>        -0.3274
     21 N3         18.3584    7.4912    2.7399 N.ar    1  <0>        -0.1994
     22 N4         16.8464    5.9177    3.7310 N.ar    1  <0>        -0.1897
     23 O1         15.2830    4.8401    2.3310 O.3     1  <0>        -0.2976
     24 O2         14.8839    3.0959   -2.0924 O.3     1  <0>        -0.3476
     25 H1         15.2151    4.1738   -4.2118 H       1  <0>         0.0233
     26 H2         15.5691    5.3794   -5.4954 H       1  <0>         0.0233
     27 H3         16.8187    4.9813   -4.2677 H       1  <0>         0.0233
     28 H4         15.3314    8.3029   -2.9913 H       1  <0>         0.0233
     29 H5         16.8782    7.5432   -3.4976 H       1  <0>         0.0233
     30 H6         15.6288    7.9413   -4.7253 H       1  <0>         0.0233
     31 H7         15.8628    1.2968   -2.6940 H       1  <0>         0.0529
     32 H8         14.1505    1.0941   -2.1908 H       1  <0>         0.0529
     33 H9         14.5378    1.8364   -3.7801 H       1  <0>         0.0529
     34 H10        10.4832    6.0424   -1.8614 H       1  <0>         0.0618
     35 H11        10.3226    3.5662   -1.8661 H       1  <0>         0.0618
     36 H12        12.7190    7.1178   -1.8654 H       1  <0>         0.0621
     37 H13        12.3553    2.1734   -1.9998 H       1  <0>         0.0643
     38 H14        14.2512    4.4167    0.3961 H       1  <0>         0.0894
     39 H15        16.2321    7.1828   -1.0542 H       1  <0>         0.0320
     40 H16        16.9069    5.4967   -1.3709 H       1  <0>         0.0320
     41 H17        14.1775    6.3562   -3.9184 H       1  <0>         0.0301
     42 H18        15.4965    6.1335   -1.0390 H       1  <0>         0.0355
     43 H19        19.1581    8.4486    0.8645 H       1  <0>         0.1437
     44 H20        18.9378    7.1596   -0.1134 H       1  <0>         0.1437
     45 H21        18.9886    7.8914    4.9393 H       1  <0>         0.1452
     46 H22        17.5216    7.5379    5.5635 H       1  <0>         0.1452
@<TRIPOS>BOND
     1     1    17    1
     2     2    17    1
     3     3    24    1
     4     4     5   ar
     5     4     6   ar
     6     5     7   ar
     7     6    10   ar
     8     7    11   ar
     9     8    12    2
    10     8    23    1
    11     9    12    1
    12     9    18    1
    13    10    11   ar
    14    10    18    1
    15    11    24    1
    16    12    13    1
    17    13    14   ar
    18    13    15   ar
    19    14    19    1
    20    14    21   ar
    21    15    22   ar
    22    15    23    1
    23    16    20    1
    24    16    21   ar
    25    16    22   ar
    26    17    18    1
    27     1    25    1
    28     1    26    1
    29     1    27    1
    30     2    28    1
    31     2    29    1
    32     2    30    1
    33     3    31    1
    34     3    32    1
    35     3    33    1
    36     4    34    1
    37     5    35    1
    38     6    36    1
    39     7    37    1
    40     8    38    1
    41     9    39    1
    42     9    40    1
    43    17    41    1
    44    18    42    1
    45    19    43    1
    46    19    44    1
    47    20    45    1
    48    20    46    1
@<TRIPOS>SUBSTRUCTURE
     1 <0>         1 TEMP              0 ****  ****    0 ROOT

