
##########                                Name:        D2B_187_3NXO
##########                    Molecular_Weight:             326.398
##########                DOCK_Rotatable_Bonds:                   5
##########                       Formal_Charge:         0.000600189
##########                     HBond_Acceptors:                   6
##########                        HBond_Donors:                   4
##########                         Heavy_Atoms:                  24
##########                            HA_RMSDs:               6.222
##########                            HA_RMSDh:               5.672
##########                            HA_RMSDm:               4.990
##########                          Grid_Score:          -48.996914
##########                     Grid_vdw_energy:          -48.163776
##########                      Grid_es_energy:           -0.833138
##########           Internal_energy_repulsive:           39.394089

@<TRIPOS>MOLECULE
D2B_187_3NXO
 46 48 1 0 0
SMALL
USER_CHARGES


@<TRIPOS>ATOM
      1 C1         13.9661    6.7438   -1.1851 C.3     1  <0>        -0.0621
      2 C2         14.9660    6.7254   -3.5797 C.3     1  <0>        -0.0621
      3 C3         13.6106    3.3545    0.3986 C.3     1  <0>         0.0430
      4 C4         17.0946    6.9190    1.6837 C.ar    1  <0>        -0.0613
      5 C5         16.3771    5.9883    2.4470 C.ar    1  <0>        -0.0593
      6 C6         17.1006    6.7939    0.2911 C.ar    1  <0>        -0.0558
      7 C7         15.6357    4.9745    1.8344 C.ar    1  <0>        -0.0314
      8 C8         19.3692    5.3032   -1.8961 C.2     1  <0>         0.0527
      9 C9         17.0356    4.8919   -2.6529 C.3     1  <0>        -0.0179
     10 C10        16.4029    5.7532   -0.3349 C.ar    1  <0>        -0.0138
     11 C11        15.6046    4.8682    0.4213 C.ar    1  <0>         0.0793
     12 C12        18.4350    4.6608   -2.6327 C.2     1  <0>        -0.0091
     13 C13        19.0793    3.5840   -3.3071 C.ar    1  <0>         0.0692
     14 C14        18.7693    2.5844   -4.2708 C.ar    1  <0>         0.1314
     15 C15        20.4251    3.7555   -3.0491 C.ar    1  <0>         0.1866
     16 C16        21.0055    2.0713   -4.4889 C.ar    1  <0>         0.2166
     17 C17        15.2220    6.7279   -2.1231 C.3     1  <0>        -0.0395
     18 C18        16.3346    5.7084   -1.7284 C.3     1  <0>        -0.0070
     19 N1         17.5344    2.3219   -4.7321 N.pl3   1  <0>        -0.3425
     20 N2         21.9860    1.3774   -5.0668 N.pl3   1  <0>        -0.3274
     21 N3         19.7538    1.8750   -4.8876 N.ar    1  <0>        -0.1994
     22 N4         21.3817    2.9609   -3.5038 N.ar    1  <0>        -0.1897
     23 O1         20.6604    4.7152   -2.1013 O.3     1  <0>        -0.2976
     24 O2         14.8765    3.8705   -0.2158 O.3     1  <0>        -0.3476
     25 H1         14.2924    6.7441   -0.1346 H       1  <0>         0.0233
     26 H2         13.3712    7.6473   -1.3844 H       1  <0>         0.0233
     27 H3         13.3531    5.8510   -1.3781 H       1  <0>         0.0233
     28 H4         15.9236    6.7139   -4.1208 H       1  <0>         0.0233
     29 H5         14.3829    5.8321   -3.8479 H       1  <0>         0.0233
     30 H6         14.4009    7.6283   -3.8541 H       1  <0>         0.0233
     31 H7         13.1805    2.5746   -0.2470 H       1  <0>         0.0529
     32 H8         13.8305    2.9301    1.3893 H       1  <0>         0.0529
     33 H9         12.8917    4.1802    0.5047 H       1  <0>         0.0529
     34 H10        17.6350    7.7212    2.1641 H       1  <0>         0.0618
     35 H11        16.3974    6.0555    3.5246 H       1  <0>         0.0618
     36 H12        17.6486    7.5065   -0.3076 H       1  <0>         0.0621
     37 H13        15.0847    4.2697    2.4395 H       1  <0>         0.0643
     38 H14        19.1706    6.1415   -1.2447 H       1  <0>         0.0894
     39 H15        16.8446    5.3544   -3.6324 H       1  <0>         0.0320
     40 H16        16.5877    3.8939   -2.5373 H       1  <0>         0.0320
     41 H17        15.6270    7.7294   -1.9160 H       1  <0>         0.0301
     42 H18        17.1730    5.1655   -2.1892 H       1  <0>         0.0355
     43 H19        17.5880    1.6367   -5.4585 H       1  <0>         0.1437
     44 H20        16.9673    1.9728   -3.9860 H       1  <0>         0.1437
     45 H21        21.6006    0.7713   -5.7626 H       1  <0>         0.1452
     46 H22        22.6327    2.0083   -5.4956 H       1  <0>         0.1452
@<TRIPOS>BOND
     1     1    17    1
     2     2    17    1
     3     3    24    1
     4     4     5   ar
     5     4     6   ar
     6     5     7   ar
     7     6    10   ar
     8     7    11   ar
     9     8    12    2
    10     8    23    1
    11     9    12    1
    12     9    18    1
    13    10    11   ar
    14    10    18    1
    15    11    24    1
    16    12    13    1
    17    13    14   ar
    18    13    15   ar
    19    14    19    1
    20    14    21   ar
    21    15    22   ar
    22    15    23    1
    23    16    20    1
    24    16    21   ar
    25    16    22   ar
    26    17    18    1
    27     1    25    1
    28     1    26    1
    29     1    27    1
    30     2    28    1
    31     2    29    1
    32     2    30    1
    33     3    31    1
    34     3    32    1
    35     3    33    1
    36     4    34    1
    37     5    35    1
    38     6    36    1
    39     7    37    1
    40     8    38    1
    41     9    39    1
    42     9    40    1
    43    17    41    1
    44    18    42    1
    45    19    43    1
    46    19    44    1
    47    20    45    1
    48    20    46    1
@<TRIPOS>SUBSTRUCTURE
     1 <0>         1 TEMP              0 ****  ****    0 ROOT

