
##########                                Name:        D2B_187_3NXO
##########                    Molecular_Weight:             326.398
##########                DOCK_Rotatable_Bonds:                   5
##########                       Formal_Charge:         0.000600189
##########                     HBond_Acceptors:                   6
##########                        HBond_Donors:                   4
##########                         Heavy_Atoms:                  24
##########                            HA_RMSDs:               5.928
##########                            HA_RMSDh:               5.368
##########                            HA_RMSDm:               4.664
##########                          Grid_Score:          -40.062988
##########                     Grid_vdw_energy:          -40.597984
##########                      Grid_es_energy:            0.534995
##########           Internal_energy_repulsive:           18.225216

@<TRIPOS>MOLECULE
D2B_187_3NXO
 46 48 1 0 0
SMALL
USER_CHARGES


@<TRIPOS>ATOM
      1 C1         15.3586    6.3571    0.9421 C.3     1  <0>        -0.0621
      2 C2         17.2434    4.6398    1.4247 C.3     1  <0>        -0.0621
      3 C3         13.8070    7.7749   -2.2851 C.3     1  <0>         0.0430
      4 C4         13.3946    2.6827   -1.6592 C.ar    1  <0>        -0.0613
      5 C5         12.6021    3.6025   -2.3589 C.ar    1  <0>        -0.0593
      6 C6         14.6607    3.0771   -1.2159 C.ar    1  <0>        -0.0558
      7 C7         13.0402    4.9118   -2.5745 C.ar    1  <0>        -0.0314
      8 C8         17.1456    4.2783   -3.8888 C.2     1  <0>         0.0527
      9 C9         17.6008    5.0204   -1.5586 C.3     1  <0>        -0.0179
     10 C10        15.1340    4.3711   -1.4680 C.ar    1  <0>        -0.0138
     11 C11        14.3055    5.3291   -2.0909 C.ar    1  <0>         0.0793
     12 C12        17.9630    4.5478   -2.8460 C.2     1  <0>        -0.0091
     13 C13        19.3061    4.4105   -3.3007 C.ar    1  <0>         0.0692
     14 C14        20.6261    4.4505   -2.7715 C.ar    1  <0>         0.1314
     15 C15        19.1996    3.8964   -4.5781 C.ar    1  <0>         0.1866
     16 C16        21.4653    3.6040   -4.7439 C.ar    1  <0>         0.2166
     17 C17        16.0787    5.0095    0.5917 C.3     1  <0>        -0.0395
     18 C18        16.3545    4.7774   -0.9260 C.3     1  <0>        -0.0070
     19 N1         20.9382    4.8268   -1.5194 N.pl3   1  <0>        -0.3425
     20 N2         22.4894    3.1665   -5.4764 N.pl3   1  <0>        -0.3274
     21 N3         21.6857    3.9932   -3.4933 N.ar    1  <0>        -0.1994
     22 N4         20.2305    3.6121   -5.3590 N.ar    1  <0>        -0.1897
     23 O1         17.9109    3.9010   -5.0408 O.3     1  <0>        -0.2976
     24 O2         14.7677    6.6245   -2.2904 O.3     1  <0>        -0.3476
     25 H1         14.5157    6.5131    0.2528 H       1  <0>         0.0233
     26 H2         14.9840    6.3146    1.9755 H       1  <0>         0.0233
     27 H3         16.0711    7.1895    0.8441 H       1  <0>         0.0233
     28 H4         17.6538    3.6803    1.0770 H       1  <0>         0.0233
     29 H5         18.0149    5.4195    1.3428 H       1  <0>         0.0233
     30 H6         16.9280    4.5446    2.4742 H       1  <0>         0.0233
     31 H7         14.3558    8.7124   -2.4580 H       1  <0>         0.0529
     32 H8         13.0621    7.6340   -3.0820 H       1  <0>         0.0529
     33 H9         13.2978    7.8225   -1.3112 H       1  <0>         0.0529
     34 H10        13.0329    1.6838   -1.4652 H       1  <0>         0.0618
     35 H11        11.6385    3.2948   -2.7371 H       1  <0>         0.0618
     36 H12        15.2797    2.3774   -0.6739 H       1  <0>         0.0621
     37 H13        12.4127    5.6079   -3.1114 H       1  <0>         0.0643
     38 H14        16.0677    4.3387   -3.8581 H       1  <0>         0.0894
     39 H15        18.3469    4.5798   -0.8810 H       1  <0>         0.0320
     40 H16        17.6634    6.1158   -1.6372 H       1  <0>         0.0320
     41 H17        15.2947    4.2940    0.8806 H       1  <0>         0.0301
     42 H18        17.2047    4.6341   -1.6090 H       1  <0>         0.0355
     43 H19        21.9166    4.6911   -1.3642 H       1  <0>         0.1437
     44 H20        20.7120    5.7930   -1.3958 H       1  <0>         0.1437
     45 H21        23.3277    3.2009   -4.9322 H       1  <0>         0.1452
     46 H22        22.3161    2.2239   -5.7621 H       1  <0>         0.1452
@<TRIPOS>BOND
     1     1    17    1
     2     2    17    1
     3     3    24    1
     4     4     5   ar
     5     4     6   ar
     6     5     7   ar
     7     6    10   ar
     8     7    11   ar
     9     8    12    2
    10     8    23    1
    11     9    12    1
    12     9    18    1
    13    10    11   ar
    14    10    18    1
    15    11    24    1
    16    12    13    1
    17    13    14   ar
    18    13    15   ar
    19    14    19    1
    20    14    21   ar
    21    15    22   ar
    22    15    23    1
    23    16    20    1
    24    16    21   ar
    25    16    22   ar
    26    17    18    1
    27     1    25    1
    28     1    26    1
    29     1    27    1
    30     2    28    1
    31     2    29    1
    32     2    30    1
    33     3    31    1
    34     3    32    1
    35     3    33    1
    36     4    34    1
    37     5    35    1
    38     6    36    1
    39     7    37    1
    40     8    38    1
    41     9    39    1
    42     9    40    1
    43    17    41    1
    44    18    42    1
    45    19    43    1
    46    19    44    1
    47    20    45    1
    48    20    46    1
@<TRIPOS>SUBSTRUCTURE
     1 <0>         1 TEMP              0 ****  ****    0 ROOT

