
##########                                Name:        D2B_187_3NXO
##########                    Molecular_Weight:             326.398
##########                DOCK_Rotatable_Bonds:                   5
##########                       Formal_Charge:         0.000600189
##########                     HBond_Acceptors:                   6
##########                        HBond_Donors:                   4
##########                         Heavy_Atoms:                  24
##########                            HA_RMSDs:               3.819
##########                            HA_RMSDh:               3.700
##########                            HA_RMSDm:               2.812
##########                          Grid_Score:          -38.186268
##########                     Grid_vdw_energy:          -38.491028
##########                      Grid_es_energy:            0.304760
##########           Internal_energy_repulsive:           25.013542

@<TRIPOS>MOLECULE
D2B_187_3NXO
 46 48 1 0 0
SMALL
USER_CHARGES


@<TRIPOS>ATOM
      1 C1         12.7914    0.0782   -1.7997 C.3     1  <0>        -0.0621
      2 C2         14.0959    1.1494   -3.7708 C.3     1  <0>        -0.0621
      3 C3         11.9712    0.7807    1.4404 C.3     1  <0>         0.0430
      4 C4          9.8924    4.0159   -1.9785 C.ar    1  <0>        -0.0613
      5 C5          9.4614    3.6761   -0.6892 C.ar    1  <0>        -0.0593
      6 C6         11.2000    3.7021   -2.3616 C.ar    1  <0>        -0.0558
      7 C7         10.3011    2.9907    0.1927 C.ar    1  <0>        -0.0314
      8 C8         14.0907    4.6401    0.3157 C.2     1  <0>         0.0527
      9 C9         14.6075    3.2414   -1.6753 C.3     1  <0>        -0.0179
     10 C10        12.0696    3.0596   -1.4712 C.ar    1  <0>        -0.0138
     11 C11        11.6137    2.6332   -0.2052 C.ar    1  <0>         0.0793
     12 C12        14.8770    4.2464   -0.7114 C.2     1  <0>        -0.0091
     13 C13        16.1231    4.9260   -0.5891 C.ar    1  <0>         0.0692
     14 C14        17.3394    5.0726   -1.3125 C.ar    1  <0>         0.1314
     15 C15        15.9380    5.8285    0.4398 C.ar    1  <0>         0.1866
     16 C16        17.9779    6.8022    0.0702 C.ar    1  <0>         0.2166
     17 C17        13.1036    1.3306   -2.6893 C.3     1  <0>        -0.0395
     18 C18        13.3340    2.6610   -1.9081 C.3     1  <0>        -0.0070
     19 N1         17.6728    4.3603   -2.4025 N.pl3   1  <0>        -0.3425
     20 N2         18.8425    7.7586    0.4089 N.pl3   1  <0>        -0.3274
     21 N3         18.2298    6.0526   -0.9970 N.ar    1  <0>        -0.1994
     22 N4         16.8639    6.6701    0.8730 N.ar    1  <0>        -0.1897
     23 O1         14.7615    5.6266    1.1107 O.3     1  <0>        -0.2976
     24 O2         12.4714    1.9518    0.6501 O.3     1  <0>        -0.3476
     25 H1         12.0432    0.3455   -1.0389 H       1  <0>         0.0233
     26 H2         12.3982   -0.7316   -2.4318 H       1  <0>         0.0233
     27 H3         13.7140   -0.2584   -1.3040 H       1  <0>         0.0233
     28 H4         14.2223    2.0965   -4.3157 H       1  <0>         0.0233
     29 H5         15.0596    0.8449   -3.3368 H       1  <0>         0.0233
     30 H6         13.7440    0.3717   -4.4646 H       1  <0>         0.0233
     31 H7         12.7892    0.3760    2.0547 H       1  <0>         0.0529
     32 H8         11.1478    1.1044    2.0939 H       1  <0>         0.0529
     33 H9         11.6095    0.0021    0.7528 H       1  <0>         0.0529
     34 H10         9.2244    4.5130   -2.6663 H       1  <0>         0.0618
     35 H11         8.4653    3.9478   -0.3724 H       1  <0>         0.0618
     36 H12        11.5427    3.9574   -3.3534 H       1  <0>         0.0621
     37 H13         9.9490    2.7327    1.1805 H       1  <0>         0.0643
     38 H14        13.0970    4.2643    0.5098 H       1  <0>         0.0894
     39 H15        14.8848    3.6975   -2.6371 H       1  <0>         0.0320
     40 H16        15.2483    2.3967   -1.3824 H       1  <0>         0.0320
     41 H17        12.1418    1.4370   -3.2124 H       1  <0>         0.0301
     42 H18        14.1018    3.4401   -1.7916 H       1  <0>         0.0355
     43 H19        18.5350    4.7037   -2.7748 H       1  <0>         0.1437
     44 H20        17.7778    3.3978   -2.1523 H       1  <0>         0.1437
     45 H21        19.6036    7.7654   -0.2398 H       1  <0>         0.1452
     46 H22        18.3816    8.6458    0.3912 H       1  <0>         0.1452
@<TRIPOS>BOND
     1     1    17    1
     2     2    17    1
     3     3    24    1
     4     4     5   ar
     5     4     6   ar
     6     5     7   ar
     7     6    10   ar
     8     7    11   ar
     9     8    12    2
    10     8    23    1
    11     9    12    1
    12     9    18    1
    13    10    11   ar
    14    10    18    1
    15    11    24    1
    16    12    13    1
    17    13    14   ar
    18    13    15   ar
    19    14    19    1
    20    14    21   ar
    21    15    22   ar
    22    15    23    1
    23    16    20    1
    24    16    21   ar
    25    16    22   ar
    26    17    18    1
    27     1    25    1
    28     1    26    1
    29     1    27    1
    30     2    28    1
    31     2    29    1
    32     2    30    1
    33     3    31    1
    34     3    32    1
    35     3    33    1
    36     4    34    1
    37     5    35    1
    38     6    36    1
    39     7    37    1
    40     8    38    1
    41     9    39    1
    42     9    40    1
    43    17    41    1
    44    18    42    1
    45    19    43    1
    46    19    44    1
    47    20    45    1
    48    20    46    1
@<TRIPOS>SUBSTRUCTURE
     1 <0>         1 TEMP              0 ****  ****    0 ROOT

