
##########                                Name:        D2B_187_3NXO
##########                    Molecular_Weight:             326.398
##########                DOCK_Rotatable_Bonds:                   5
##########                       Formal_Charge:         0.000600189
##########                     HBond_Acceptors:                   6
##########                        HBond_Donors:                   4
##########                         Heavy_Atoms:                  24
##########                            HA_RMSDs:               5.849
##########                            HA_RMSDh:               5.319
##########                            HA_RMSDm:               4.618
##########                          Grid_Score:          -43.457993
##########                     Grid_vdw_energy:          -43.077332
##########                      Grid_es_energy:           -0.380660
##########           Internal_energy_repulsive:           21.559544

@<TRIPOS>MOLECULE
D2B_187_3NXO
 46 48 1 0 0
SMALL
USER_CHARGES


@<TRIPOS>ATOM
      1 C1         15.2089    6.2365    1.0139 C.3     1  <0>        -0.0621
      2 C2         17.1199    4.5439    1.4807 C.3     1  <0>        -0.0621
      3 C3         13.8748    7.7352   -2.5694 C.3     1  <0>         0.0430
      4 C4         12.9702    2.7934   -1.4446 C.ar    1  <0>        -0.0613
      5 C5         12.2643    3.7610   -2.1719 C.ar    1  <0>        -0.0593
      6 C6         14.2774    3.0726   -1.0344 C.ar    1  <0>        -0.0558
      7 C7         12.8305    5.0084   -2.4478 C.ar    1  <0>        -0.0314
      8 C8         17.0538    3.0530   -3.3202 C.2     1  <0>         0.0527
      9 C9         17.3902    4.7152   -1.5004 C.3     1  <0>        -0.0179
     10 C10        14.8764    4.2997   -1.3464 C.ar    1  <0>        -0.0138
     11 C11        14.1400    5.3122   -1.9982 C.ar    1  <0>         0.0793
     12 C12        17.8010    3.9209   -2.6014 C.2     1  <0>        -0.0091
     13 C13        19.0752    4.0210   -3.2307 C.ar    1  <0>         0.0692
     14 C14        20.3359    4.6406   -3.0055 C.ar    1  <0>         0.1314
     15 C15        19.0614    3.0573   -4.2198 C.ar    1  <0>         0.1866
     16 C16        21.2736    3.3989   -4.7056 C.ar    1  <0>         0.2166
     17 C17        15.9223    4.8809    0.6811 C.3     1  <0>        -0.0395
     18 C18        16.1412    4.5994   -0.8375 C.3     1  <0>        -0.0070
     19 N1         20.5876    5.5337   -2.0329 N.pl3   1  <0>        -0.3425
     20 N2         22.3317    3.0375   -5.4311 N.pl3   1  <0>        -0.3274
     21 N3         21.4349    4.2761   -3.7212 N.ar    1  <0>        -0.1994
     22 N4         20.0703    2.8143   -5.0423 N.ar    1  <0>        -0.1897
     23 O1         17.8194    2.5112   -4.4043 O.3     1  <0>        -0.2976
     24 O2         14.7291    6.5439   -2.2577 O.3     1  <0>        -0.3476
     25 H1         14.3394    6.3659    0.3527 H       1  <0>         0.0233
     26 H2         14.8743    6.2269    2.0617 H       1  <0>         0.0233
     27 H3         15.9126    7.0681    0.8612 H       1  <0>         0.0233
     28 H4         17.5219    3.5751    1.1495 H       1  <0>         0.0233
     29 H5         17.8835    5.3237    1.3434 H       1  <0>         0.0233
     30 H6         16.8453    4.4825    2.5440 H       1  <0>         0.0233
     31 H7         14.5165    8.6115   -2.7445 H       1  <0>         0.0529
     32 H8         13.2778    7.5323   -3.4706 H       1  <0>         0.0529
     33 H9         13.2030    7.9363   -1.7219 H       1  <0>         0.0529
     34 H10        12.5113    1.8457   -1.2043 H       1  <0>         0.0618
     35 H11        11.2679    3.5393   -2.5246 H       1  <0>         0.0618
     36 H12        14.8305    2.3352   -0.4715 H       1  <0>         0.0621
     37 H13        12.2687    5.7432   -3.0052 H       1  <0>         0.0643
     38 H14        16.0249    2.8032   -3.1074 H       1  <0>         0.0894
     39 H15        18.1386    4.5157   -0.7194 H       1  <0>         0.0320
     40 H16        17.4082    5.7473   -1.8805 H       1  <0>         0.0320
     41 H17        15.1538    4.1722    1.0234 H       1  <0>         0.0301
     42 H18        16.9590    4.3666   -1.5355 H       1  <0>         0.0355
     43 H19        21.5620    5.7583   -2.0300 H       1  <0>         0.1437
     44 H20        20.0547    6.3638   -2.1969 H       1  <0>         0.1437
     45 H21        23.1439    3.5172   -5.0989 H       1  <0>         0.1452
     46 H22        22.4707    2.0506   -5.3489 H       1  <0>         0.1452
@<TRIPOS>BOND
     1     1    17    1
     2     2    17    1
     3     3    24    1
     4     4     5   ar
     5     4     6   ar
     6     5     7   ar
     7     6    10   ar
     8     7    11   ar
     9     8    12    2
    10     8    23    1
    11     9    12    1
    12     9    18    1
    13    10    11   ar
    14    10    18    1
    15    11    24    1
    16    12    13    1
    17    13    14   ar
    18    13    15   ar
    19    14    19    1
    20    14    21   ar
    21    15    22   ar
    22    15    23    1
    23    16    20    1
    24    16    21   ar
    25    16    22   ar
    26    17    18    1
    27     1    25    1
    28     1    26    1
    29     1    27    1
    30     2    28    1
    31     2    29    1
    32     2    30    1
    33     3    31    1
    34     3    32    1
    35     3    33    1
    36     4    34    1
    37     5    35    1
    38     6    36    1
    39     7    37    1
    40     8    38    1
    41     9    39    1
    42     9    40    1
    43    17    41    1
    44    18    42    1
    45    19    43    1
    46    19    44    1
    47    20    45    1
    48    20    46    1
@<TRIPOS>SUBSTRUCTURE
     1 <0>         1 TEMP              0 ****  ****    0 ROOT

