
##########                                Name:        D2B_187_3NXO
##########                    Molecular_Weight:             326.398
##########                DOCK_Rotatable_Bonds:                   5
##########                       Formal_Charge:         0.000600189
##########                     HBond_Acceptors:                   6
##########                        HBond_Donors:                   4
##########                         Heavy_Atoms:                  24
##########                            HA_RMSDs:               7.132
##########                            HA_RMSDh:               5.410
##########                            HA_RMSDm:               4.978
##########                          Grid_Score:          -44.036911
##########                     Grid_vdw_energy:          -43.706505
##########                      Grid_es_energy:           -0.330405
##########           Internal_energy_repulsive:           22.006645

@<TRIPOS>MOLECULE
D2B_187_3NXO
 46 48 1 0 0
SMALL
USER_CHARGES


@<TRIPOS>ATOM
      1 C1         16.1615    7.5470   -1.3231 C.3     1  <0>        -0.0621
      2 C2         14.0874    6.5396   -2.5138 C.3     1  <0>        -0.0621
      3 C3         17.3478    6.1353    2.0236 C.3     1  <0>         0.0430
      4 C4         19.4495    4.9275   -2.5169 C.ar    1  <0>        -0.0613
      5 C5         20.0078    5.0701   -1.2396 C.ar    1  <0>        -0.0593
      6 C6         18.0591    4.8531   -2.6453 C.ar    1  <0>        -0.0558
      7 C7         19.1956    5.1857   -0.1084 C.ar    1  <0>        -0.0314
      8 C8         15.1169    2.5736   -3.4598 C.2     1  <0>         0.0527
      9 C9         14.8732    3.9526   -1.4039 C.3     1  <0>        -0.0179
     10 C10        17.2338    4.9175   -1.5155 C.ar    1  <0>        -0.0138
     11 C11        17.7844    5.1528   -0.2374 C.ar    1  <0>         0.0793
     12 C12        14.5530    2.8746   -2.2684 C.2     1  <0>        -0.0091
     13 C13        13.6491    1.8241   -1.9384 C.ar    1  <0>         0.0692
     14 C14        12.6889    1.5118   -0.9362 C.ar    1  <0>         0.1314
     15 C15        13.6104    1.0208   -3.0612 C.ar    1  <0>         0.1866
     16 C16        11.9206   -0.2597   -2.1945 C.ar    1  <0>         0.2166
     17 C17        15.5167    6.3918   -2.1640 C.3     1  <0>        -0.0395
     18 C18        15.8473    4.9480   -1.6746 C.3     1  <0>        -0.0070
     19 N1         12.4967    2.2224    0.1884 N.pl3   1  <0>        -0.3425
     20 N2         11.0710   -1.2701   -2.3787 N.pl3   1  <0>        -0.3274
     21 N3         11.7992    0.4961   -1.1089 N.ar    1  <0>        -0.1994
     22 N4         12.8758   -0.0752   -3.1725 N.ar    1  <0>        -0.1897
     23 O1         14.5683    1.3559   -3.9805 O.3     1  <0>        -0.2976
     24 O2         16.9515    5.2652    0.8694 O.3     1  <0>        -0.3476
     25 H1         17.2198    7.3156   -1.1322 H       1  <0>         0.0233
     26 H2         16.0879    8.4918   -1.8816 H       1  <0>         0.0233
     27 H3         15.6291    7.6444   -0.3655 H       1  <0>         0.0233
     28 H4         13.7607    5.6680   -3.0998 H       1  <0>         0.0233
     29 H5         13.4897    6.6068   -1.5928 H       1  <0>         0.0233
     30 H6         13.9484    7.4542   -3.1088 H       1  <0>         0.0233
     31 H7         16.5674    6.0962    2.7979 H       1  <0>         0.0529
     32 H8         18.2990    5.7764    2.4435 H       1  <0>         0.0529
     33 H9         17.4681    7.1721    1.6765 H       1  <0>         0.0529
     34 H10        20.0837    4.8757   -3.3895 H       1  <0>         0.0618
     35 H11        21.0817    5.0911   -1.1278 H       1  <0>         0.0618
     36 H12        17.6174    4.7450   -3.6249 H       1  <0>         0.0621
     37 H13        19.6445    5.3005    0.8672 H       1  <0>         0.0643
     38 H14        15.8742    3.1673   -3.9502 H       1  <0>         0.0894
     39 H15        13.9309    4.5091   -1.2931 H       1  <0>         0.0320
     40 H16        15.2177    3.4720   -0.4764 H       1  <0>         0.0320
     41 H17        16.0494    6.5293   -3.1165 H       1  <0>         0.0301
     42 H18        15.3808    3.9528   -1.6300 H       1  <0>         0.0355
     43 H19        11.7144    1.8511    0.6884 H       1  <0>         0.1437
     44 H20        13.3147    2.1675    0.7610 H       1  <0>         0.1437
     45 H21        10.4256   -1.3069   -1.6158 H       1  <0>         0.1452
     46 H22        10.5697   -1.1324   -3.2330 H       1  <0>         0.1452
@<TRIPOS>BOND
     1     1    17    1
     2     2    17    1
     3     3    24    1
     4     4     5   ar
     5     4     6   ar
     6     5     7   ar
     7     6    10   ar
     8     7    11   ar
     9     8    12    2
    10     8    23    1
    11     9    12    1
    12     9    18    1
    13    10    11   ar
    14    10    18    1
    15    11    24    1
    16    12    13    1
    17    13    14   ar
    18    13    15   ar
    19    14    19    1
    20    14    21   ar
    21    15    22   ar
    22    15    23    1
    23    16    20    1
    24    16    21   ar
    25    16    22   ar
    26    17    18    1
    27     1    25    1
    28     1    26    1
    29     1    27    1
    30     2    28    1
    31     2    29    1
    32     2    30    1
    33     3    31    1
    34     3    32    1
    35     3    33    1
    36     4    34    1
    37     5    35    1
    38     6    36    1
    39     7    37    1
    40     8    38    1
    41     9    39    1
    42     9    40    1
    43    17    41    1
    44    18    42    1
    45    19    43    1
    46    19    44    1
    47    20    45    1
    48    20    46    1
@<TRIPOS>SUBSTRUCTURE
     1 <0>         1 TEMP              0 ****  ****    0 ROOT

