
##########                                Name:        D2B_187_3NXO
##########                    Molecular_Weight:             326.398
##########                DOCK_Rotatable_Bonds:                   5
##########                       Formal_Charge:         0.000600189
##########                     HBond_Acceptors:                   6
##########                        HBond_Donors:                   4
##########                         Heavy_Atoms:                  24
##########                            HA_RMSDs:               3.945
##########                            HA_RMSDh:               3.816
##########                            HA_RMSDm:               2.909
##########                          Grid_Score:          -40.702587
##########                     Grid_vdw_energy:          -40.729168
##########                      Grid_es_energy:            0.026581
##########           Internal_energy_repulsive:           21.706316

@<TRIPOS>MOLECULE
D2B_187_3NXO
 46 48 1 0 0
SMALL
USER_CHARGES


@<TRIPOS>ATOM
      1 C1         12.4797    0.0378   -1.9540 C.3     1  <0>        -0.0621
      2 C2         13.9776    1.0663   -3.8068 C.3     1  <0>        -0.0621
      3 C3         11.8626    0.9293    1.7541 C.3     1  <0>         0.0430
      4 C4          9.8825    4.0713   -1.8117 C.ar    1  <0>        -0.0613
      5 C5          9.4645    3.6675   -0.5366 C.ar    1  <0>        -0.0593
      6 C6         11.1653    3.7248   -2.2466 C.ar    1  <0>        -0.0558
      7 C7         10.2907    2.8890    0.2782 C.ar    1  <0>        -0.0314
      8 C8         14.1847    4.4005    0.3878 C.2     1  <0>         0.0527
      9 C9         14.5615    3.0711   -1.6806 C.3     1  <0>        -0.0179
     10 C10        12.0236    2.9871   -1.4213 C.ar    1  <0>        -0.0138
     11 C11        11.5763    2.4997   -0.1744 C.ar    1  <0>         0.0793
     12 C12        14.8849    4.0615   -0.7180 C.2     1  <0>        -0.0091
     13 C13        16.1126    4.7835   -0.6925 C.ar    1  <0>         0.0692
     14 C14        17.2503    4.9928   -1.5208 C.ar    1  <0>         0.1314
     15 C15        15.9932    5.6530    0.3738 C.ar    1  <0>         0.1866
     16 C16        17.9549    6.7104   -0.1553 C.ar    1  <0>         0.2166
     17 C17        12.9502    1.2925   -2.7675 C.3     1  <0>        -0.0395
     18 C18        13.2582    2.5616   -1.9143 C.3     1  <0>        -0.0070
     19 N1         17.5050    4.3202   -2.6564 N.pl3   1  <0>        -0.3425
     20 N2         18.8137    7.6895    0.1285 N.pl3   1  <0>        -0.3274
     21 N3         18.1319    5.9971   -1.2617 N.ar    1  <0>        -0.1994
     22 N4         16.9258    6.5175    0.7430 N.ar    1  <0>        -0.1897
     23 O1         14.8922    5.3913    1.1446 O.3     1  <0>        -0.2976
     24 O2         12.4199    1.7261    0.6137 O.3     1  <0>        -0.3476
     25 H1         11.7196    0.3407   -1.2187 H       1  <0>         0.0233
     26 H2         12.0489   -0.7046   -2.6419 H       1  <0>         0.0233
     27 H3         13.3407   -0.4034   -1.4304 H       1  <0>         0.0233
     28 H4         14.2176    2.0199   -4.2997 H       1  <0>         0.0233
     29 H5         14.8858    0.6558   -3.3412 H       1  <0>         0.0233
     30 H6         13.5941    0.3546   -4.5527 H       1  <0>         0.0233
     31 H7         12.6774    0.3865    2.2557 H       1  <0>         0.0529
     32 H8         11.3772    1.6068    2.4720 H       1  <0>         0.0529
     33 H9         11.1237    0.2096    1.3718 H       1  <0>         0.0529
     34 H10         9.2233    4.6418   -2.4492 H       1  <0>         0.0618
     35 H11         8.4893    3.9624   -0.1783 H       1  <0>         0.0618
     36 H12        11.4977    4.0288   -3.2282 H       1  <0>         0.0621
     37 H13         9.9488    2.5830    1.2559 H       1  <0>         0.0643
     38 H14        13.2270    3.9834    0.6623 H       1  <0>         0.0894
     39 H15        14.8651    3.5093   -2.6427 H       1  <0>         0.0320
     40 H16        15.1542    2.1927   -1.3852 H       1  <0>         0.0320
     41 H17        12.0308    1.5096   -3.3311 H       1  <0>         0.0301
     42 H18        14.0627    3.2982   -1.7715 H       1  <0>         0.0355
     43 H19        18.3163    4.7044   -3.0970 H       1  <0>         0.1437
     44 H20        17.6662    3.3564   -2.4438 H       1  <0>         0.1437
     45 H21        19.5102    7.7405   -0.5872 H       1  <0>         0.1452
     46 H22        18.3227    8.5593    0.1783 H       1  <0>         0.1452
@<TRIPOS>BOND
     1     1    17    1
     2     2    17    1
     3     3    24    1
     4     4     5   ar
     5     4     6   ar
     6     5     7   ar
     7     6    10   ar
     8     7    11   ar
     9     8    12    2
    10     8    23    1
    11     9    12    1
    12     9    18    1
    13    10    11   ar
    14    10    18    1
    15    11    24    1
    16    12    13    1
    17    13    14   ar
    18    13    15   ar
    19    14    19    1
    20    14    21   ar
    21    15    22   ar
    22    15    23    1
    23    16    20    1
    24    16    21   ar
    25    16    22   ar
    26    17    18    1
    27     1    25    1
    28     1    26    1
    29     1    27    1
    30     2    28    1
    31     2    29    1
    32     2    30    1
    33     3    31    1
    34     3    32    1
    35     3    33    1
    36     4    34    1
    37     5    35    1
    38     6    36    1
    39     7    37    1
    40     8    38    1
    41     9    39    1
    42     9    40    1
    43    17    41    1
    44    18    42    1
    45    19    43    1
    46    19    44    1
    47    20    45    1
    48    20    46    1
@<TRIPOS>SUBSTRUCTURE
     1 <0>         1 TEMP              0 ****  ****    0 ROOT

