
##########                                Name:        D2B_187_3NXO
##########                    Molecular_Weight:             326.398
##########                DOCK_Rotatable_Bonds:                   5
##########                       Formal_Charge:         0.000600189
##########                     HBond_Acceptors:                   6
##########                        HBond_Donors:                   4
##########                         Heavy_Atoms:                  24
##########                            HA_RMSDs:               6.596
##########                            HA_RMSDh:               6.104
##########                            HA_RMSDm:               5.386
##########                          Grid_Score:          -46.446510
##########                     Grid_vdw_energy:          -46.170387
##########                      Grid_es_energy:           -0.276123
##########           Internal_energy_repulsive:           16.407944

@<TRIPOS>MOLECULE
D2B_187_3NXO
 46 48 1 0 0
SMALL
USER_CHARGES


@<TRIPOS>ATOM
      1 C1         17.6706    7.2367   -0.7653 C.3     1  <0>        -0.0621
      2 C2         17.7456    5.1405    0.7629 C.3     1  <0>        -0.0621
      3 C3         14.9727    7.9000   -3.6229 C.3     1  <0>         0.0430
      4 C4         13.4556    3.7236   -1.0254 C.ar    1  <0>        -0.0613
      5 C5         12.7695    4.5725   -1.9042 C.ar    1  <0>        -0.0593
      6 C6         14.8502    3.7995   -0.9589 C.ar    1  <0>        -0.0558
      7 C7         13.4541    5.5179   -2.6723 C.ar    1  <0>        -0.0314
      8 C8         16.7669    2.5136   -3.5784 C.2     1  <0>         0.0527
      9 C9         18.0000    4.3030   -2.3680 C.3     1  <0>        -0.0179
     10 C10        15.5544    4.7079   -1.7594 C.ar    1  <0>        -0.0138
     11 C11        14.8641    5.6276   -2.5779 C.ar    1  <0>         0.0793
     12 C12        17.8811    3.2145   -3.2697 C.2     1  <0>        -0.0091
     13 C13        18.9278    2.7641   -4.1247 C.ar    1  <0>         0.0692
     14 C14        20.3235    2.9689   -4.3095 C.ar    1  <0>         0.1314
     15 C15        18.3979    1.6805   -4.7972 C.ar    1  <0>         0.1866
     16 C16        20.4170    1.1749   -5.7532 C.ar    1  <0>         0.2166
     17 C17        17.1229    5.8149   -0.3967 C.3     1  <0>        -0.0395
     18 C18        16.9348    4.8415   -1.6010 C.3     1  <0>        -0.0070
     19 N1         21.0505    3.9061   -3.6771 N.pl3   1  <0>        -0.3425
     20 N2         21.1128    0.3496   -6.5352 N.pl3   1  <0>        -0.3274
     21 N3         21.0589    2.1293   -5.0889 N.ar    1  <0>        -0.1994
     22 N4         19.0554    0.9613   -5.6937 N.ar    1  <0>        -0.1897
     23 O1         17.0501    1.5456   -4.5971 O.3     1  <0>        -0.2976
     24 O2         15.5718    6.5580   -3.3295 O.3     1  <0>        -0.3476
     25 H1         17.1269    7.6245   -1.6393 H       1  <0>         0.0233
     26 H2         17.5271    7.9170    0.0871 H       1  <0>         0.0233
     27 H3         18.7426    7.1664   -1.0020 H       1  <0>         0.0233
     28 H4         17.2738    4.1583    0.9133 H       1  <0>         0.0233
     29 H5         18.8209    5.0056    0.5744 H       1  <0>         0.0233
     30 H6         17.6054    5.7562    1.6636 H       1  <0>         0.0233
     31 H7         15.6768    8.4928   -4.2253 H       1  <0>         0.0529
     32 H8         14.0338    7.7682   -4.1807 H       1  <0>         0.0529
     33 H9         14.7673    8.4242   -2.6778 H       1  <0>         0.0529
     34 H10        12.9152    3.0209   -0.4085 H       1  <0>         0.0618
     35 H11        11.6957    4.4948   -1.9890 H       1  <0>         0.0618
     36 H12        15.3896    3.1515   -0.2838 H       1  <0>         0.0621
     37 H13        12.9072    6.1672   -3.3400 H       1  <0>         0.0643
     38 H14        15.7995    2.6621   -3.1216 H       1  <0>         0.0894
     39 H15        18.7366    3.9675   -1.6232 H       1  <0>         0.0320
     40 H16        18.3463    5.1419   -2.9895 H       1  <0>         0.0320
     41 H17        16.1139    6.0834   -0.0505 H       1  <0>         0.0301
     42 H18        17.5138    4.1086   -2.1823 H       1  <0>         0.0355
     43 H19        22.0159    3.7953   -3.9132 H       1  <0>         0.1437
     44 H20        20.7407    4.8142   -3.9587 H       1  <0>         0.1437
     45 H21        22.0820    0.5934   -6.4990 H       1  <0>         0.1452
     46 H22        20.9937   -0.5908   -6.2166 H       1  <0>         0.1452
@<TRIPOS>BOND
     1     1    17    1
     2     2    17    1
     3     3    24    1
     4     4     5   ar
     5     4     6   ar
     6     5     7   ar
     7     6    10   ar
     8     7    11   ar
     9     8    12    2
    10     8    23    1
    11     9    12    1
    12     9    18    1
    13    10    11   ar
    14    10    18    1
    15    11    24    1
    16    12    13    1
    17    13    14   ar
    18    13    15   ar
    19    14    19    1
    20    14    21   ar
    21    15    22   ar
    22    15    23    1
    23    16    20    1
    24    16    21   ar
    25    16    22   ar
    26    17    18    1
    27     1    25    1
    28     1    26    1
    29     1    27    1
    30     2    28    1
    31     2    29    1
    32     2    30    1
    33     3    31    1
    34     3    32    1
    35     3    33    1
    36     4    34    1
    37     5    35    1
    38     6    36    1
    39     7    37    1
    40     8    38    1
    41     9    39    1
    42     9    40    1
    43    17    41    1
    44    18    42    1
    45    19    43    1
    46    19    44    1
    47    20    45    1
    48    20    46    1
@<TRIPOS>SUBSTRUCTURE
     1 <0>         1 TEMP              0 ****  ****    0 ROOT

