
##########                                Name:        D2B_187_3NXO
##########                    Molecular_Weight:             326.398
##########                DOCK_Rotatable_Bonds:                   5
##########                       Formal_Charge:         0.000600189
##########                     HBond_Acceptors:                   6
##########                        HBond_Donors:                   4
##########                         Heavy_Atoms:                  24
##########                            HA_RMSDs:               7.255
##########                            HA_RMSDh:               5.807
##########                            HA_RMSDm:               5.361
##########                          Grid_Score:          -44.603409
##########                     Grid_vdw_energy:          -43.618198
##########                      Grid_es_energy:           -0.985212
##########           Internal_energy_repulsive:           20.062630

@<TRIPOS>MOLECULE
D2B_187_3NXO
 46 48 1 0 0
SMALL
USER_CHARGES


@<TRIPOS>ATOM
      1 C1         16.3843    7.2178   -1.6638 C.3     1  <0>        -0.0621
      2 C2         15.1124    6.7831   -3.8836 C.3     1  <0>        -0.0621
      3 C3         18.0197    5.0696    0.9533 C.3     1  <0>         0.0430
      4 C4         19.4698    3.8900   -3.8416 C.ar    1  <0>        -0.0613
      5 C5         20.1117    3.6836   -2.6132 C.ar    1  <0>        -0.0593
      6 C6         18.1131    4.2278   -3.8500 C.ar    1  <0>        -0.0558
      7 C7         19.4286    3.8570   -1.4066 C.ar    1  <0>        -0.0314
      8 C8         15.4843    1.9085   -3.4893 C.2     1  <0>         0.0527
      9 C9         14.8721    4.0846   -2.4513 C.3     1  <0>        -0.0179
     10 C10        17.4024    4.3565   -2.6499 C.ar    1  <0>        -0.0138
     11 C11        18.0639    4.2401   -1.4085 C.ar    1  <0>         0.0793
     12 C12        14.6290    2.7502   -2.8664 C.2     1  <0>        -0.0091
     13 C13        13.4476    2.0171   -2.5561 C.ar    1  <0>         0.0692
     14 C14        12.1544    2.2495   -2.0104 C.ar    1  <0>         0.1314
     15 C15        13.6141    0.7935   -3.1746 C.ar    1  <0>         0.1866
     16 C16        11.4787    0.1441   -2.6601 C.ar    1  <0>         0.2166
     17 C17        16.1562    6.3331   -2.9376 C.3     1  <0>        -0.0395
     18 C18        16.0782    4.7973   -2.6759 C.3     1  <0>        -0.0070
     19 N1         11.7559    3.4043   -1.4498 N.pl3   1  <0>        -0.3425
     20 N2         10.5345   -0.7910   -2.7644 N.pl3   1  <0>        -0.3274
     21 N3         11.1686    1.3173   -2.1199 N.ar    1  <0>        -0.1994
     22 N4         12.7290   -0.1906   -3.1376 N.ar    1  <0>        -0.1897
     23 O1         14.8816    0.6194   -3.6623 O.3     1  <0>        -0.2976
     24 O2         17.3587    4.4198   -0.2245 O.3     1  <0>        -0.3476
     25 H1         17.1815    6.7760   -1.0478 H       1  <0>         0.0233
     26 H2         16.6778    8.2326   -1.9702 H       1  <0>         0.0233
     27 H3         15.4536    7.2657   -1.0794 H       1  <0>         0.0233
     28 H4         15.0537    6.0799   -4.7275 H       1  <0>         0.0233
     29 H5         14.1413    6.8187   -3.3681 H       1  <0>         0.0233
     30 H6         15.3654    7.7856   -4.2589 H       1  <0>         0.0233
     31 H7         17.3081    5.1230    1.7905 H       1  <0>         0.0529
     32 H8         18.8962    4.4772    1.2545 H       1  <0>         0.0529
     33 H9         18.3402    6.0855    0.6792 H       1  <0>         0.0529
     34 H10        20.0151    3.7895   -4.7685 H       1  <0>         0.0618
     35 H11        21.1498    3.3862   -2.5988 H       1  <0>         0.0618
     36 H12        17.6083    4.3912   -4.7907 H       1  <0>         0.0621
     37 H13        19.9420    3.6986   -0.4697 H       1  <0>         0.0643
     38 H14        16.4813    2.1706   -3.8113 H       1  <0>         0.0894
     39 H15        14.0993    4.6791   -2.9605 H       1  <0>         0.0320
     40 H16        14.7645    4.0590   -1.3569 H       1  <0>         0.0320
     41 H17        17.1038    6.5129   -3.4665 H       1  <0>         0.0301
     42 H18        15.3460    3.9775   -2.7208 H       1  <0>         0.0355
     43 H19        10.7849    3.3454   -1.2182 H       1  <0>         0.1437
     44 H20        12.2869    3.5721   -0.6192 H       1  <0>         0.1437
     45 H21         9.6749   -0.4402   -2.3929 H       1  <0>         0.1452
     46 H22        10.4083   -1.0310   -3.7269 H       1  <0>         0.1452
@<TRIPOS>BOND
     1     1    17    1
     2     2    17    1
     3     3    24    1
     4     4     5   ar
     5     4     6   ar
     6     5     7   ar
     7     6    10   ar
     8     7    11   ar
     9     8    12    2
    10     8    23    1
    11     9    12    1
    12     9    18    1
    13    10    11   ar
    14    10    18    1
    15    11    24    1
    16    12    13    1
    17    13    14   ar
    18    13    15   ar
    19    14    19    1
    20    14    21   ar
    21    15    22   ar
    22    15    23    1
    23    16    20    1
    24    16    21   ar
    25    16    22   ar
    26    17    18    1
    27     1    25    1
    28     1    26    1
    29     1    27    1
    30     2    28    1
    31     2    29    1
    32     2    30    1
    33     3    31    1
    34     3    32    1
    35     3    33    1
    36     4    34    1
    37     5    35    1
    38     6    36    1
    39     7    37    1
    40     8    38    1
    41     9    39    1
    42     9    40    1
    43    17    41    1
    44    18    42    1
    45    19    43    1
    46    19    44    1
    47    20    45    1
    48    20    46    1
@<TRIPOS>SUBSTRUCTURE
     1 <0>         1 TEMP              0 ****  ****    0 ROOT

