
##########                                Name:      413_H1261_1W7X
##########                    Molecular_Weight:             538.603
##########                DOCK_Rotatable_Bonds:                  12
##########                       Formal_Charge:         0.000799671
##########                     HBond_Acceptors:                   9
##########                        HBond_Donors:                   6
##########                         Heavy_Atoms:                  40
##########                            HA_RMSDs:               0.274
##########                            HA_RMSDh:               0.274
##########                            HA_RMSDm:               0.274
##########                          Grid_Score:          -98.617386
##########                     Grid_vdw_energy:          -59.438358
##########                      Grid_es_energy:          -39.179031
##########           Internal_energy_repulsive:           21.832590

@<TRIPOS>MOLECULE
413_H1261_1W7X
 70 73 1 0 0
SMALL
USER_CHARGES


@<TRIPOS>ATOM
      1 C1         12.7319   43.8541   34.6876 C.3     1  <0>         0.0431
      2 C2         11.5400   45.8895   26.2093 C.ar    1  <0>        -0.0617
      3 C3          8.3951   43.6186   37.0356 C.ar    1  <0>        -0.0617
      4 C4         10.4366   46.6682   26.5576 C.ar    1  <0>        -0.0614
      5 C5         12.2980   45.2928   27.2169 C.ar    1  <0>        -0.0614
      6 C6          8.5477   43.7753   35.6585 C.ar    1  <0>        -0.0614
      7 C7          7.8082   42.4604   37.5576 C.ar    1  <0>        -0.0614
      8 C8         10.1000   46.8617   27.8997 C.ar    1  <0>        -0.0564
      9 C9         11.9646   45.4814   28.5584 C.ar    1  <0>        -0.0564
     10 C10         8.0803   42.7727   34.8069 C.ar    1  <0>        -0.0564
     11 C11         7.3520   41.4531   36.6951 C.ar    1  <0>        -0.0564
     12 C12        12.4923   38.4751   29.0577 C.ar    1  <0>        -0.0452
     13 C13        14.0871   37.7114   30.7226 C.ar    1  <0>        -0.0452
     14 C14        11.6784   38.9896   30.0512 C.ar    1  <0>        -0.0400
     15 C15        13.2513   38.2305   31.7130 C.ar    1  <0>        -0.0400
     16 C16         9.8322   42.2416   30.8392 C.ar    1  <0>        -0.0537
     17 C17        10.1131   43.5830   30.6012 C.ar    1  <0>        -0.0288
     18 C18        11.2035   42.3370   32.8303 C.ar    1  <0>        -0.0237
     19 C19        10.4660   46.4727   30.3609 C.3     1  <0>         0.0794
     20 C20        10.8606   46.2582   28.9138 C.ar    1  <0>        -0.0214
     21 C21         7.4796   41.6100   35.3157 C.ar    1  <0>        -0.0217
     22 C22        13.7049   37.8470   29.3807 C.ar    1  <0>         0.0611
     23 C23        12.0354   38.8588   31.3959 C.ar    1  <0>         0.0279
     24 C24        10.3856   41.6027   31.9658 C.ar    1  <0>        -0.0159
     25 C25        10.9340   44.3104   31.4681 C.ar    1  <0>         0.1065
     26 C26        11.4742   43.6803   32.5946 C.ar    1  <0>         0.1060
     27 C27         6.9972   40.5418   34.3909 C.3     1  <0>         0.0879
     28 C28        10.0612   40.1667   32.2156 C.3     1  <0>         0.1231
     29 C29        14.5449   37.3138   28.2628 C.cat   1  <0>         0.2605
     30 C30         5.6289   40.9633   33.9550 C.2     1  <0>         0.0664
     31 C31         9.1828   40.1001   33.4320 C.2     1  <0>         0.2386
     32 N1         14.0730   37.4506   27.0135 N.pl3   1  <0>        -0.3060
     33 N2         15.7246   36.7206   28.4907 N.pl3   1  <0>        -0.2158
     34 N3         11.2624   39.3585   32.4007 N.pl3   1  <0>        -0.3294
     35 N4          7.9171   40.4939   33.2692 N.am    1  <0>        -0.3015
     36 O1          4.7120   40.9393   34.8096 O.co2   1  <0>        -0.5475
     37 O2          5.4758   41.3215   32.7666 O.co2   1  <0>        -0.5475
     38 O3          9.5987   39.7201   34.5228 O.2     1  <0>        -0.2734
     39 O4         12.2961   44.3996   33.4338 O.3     1  <0>        -0.3453
     40 O5         11.2275   45.6425   31.2402 O.3     1  <0>        -0.3375
     41 H1         13.3760   44.5830   35.2012 H       1  <0>         0.0529
     42 H2         11.8560   43.6328   35.3152 H       1  <0>         0.0529
     43 H3         13.2975   42.9281   34.5076 H       1  <0>         0.0529
     44 H4         11.8045   45.7502   25.1715 H       1  <0>         0.0618
     45 H5          8.7323   44.3968   37.7043 H       1  <0>         0.0618
     46 H6          9.8376   47.1251   25.7838 H       1  <0>         0.0618
     47 H7         13.1488   44.6806   26.9567 H       1  <0>         0.0618
     48 H8          9.0206   44.6592   35.2566 H       1  <0>         0.0618
     49 H9          7.7063   42.3421   38.6263 H       1  <0>         0.0618
     50 H10         9.2515   47.4779   28.1581 H       1  <0>         0.0621
     51 H11        12.5660   45.0221   29.3290 H       1  <0>         0.0621
     52 H12         8.1824   42.8934   33.7386 H       1  <0>         0.0621
     53 H13         6.9029   40.5577   37.0987 H       1  <0>         0.0621
     54 H14        12.1914   38.5577   28.0237 H       1  <0>         0.0627
     55 H15        15.0098   37.2152   30.9851 H       1  <0>         0.0627
     56 H16        10.7618   39.4954   29.7859 H       1  <0>         0.0636
     57 H17        13.5467   38.1469   32.7485 H       1  <0>         0.0636
     58 H18         9.1930   41.6927   30.1635 H       1  <0>         0.0622
     59 H19         9.6909   44.0695   29.7343 H       1  <0>         0.0644
     60 H20        11.6321   41.8527   33.6953 H       1  <0>         0.0648
     61 H21        10.6443   47.5257   30.6245 H       1  <0>         0.0615
     62 H22         9.3999   46.2284   30.4775 H       1  <0>         0.0615
     63 H23         6.9530   39.5437   34.8512 H       1  <0>         0.0610
     64 H24         9.5423   39.7523   31.3387 H       1  <0>         0.0645
     65 H25        14.6036   37.1077   26.2383 H       1  <0>         0.1477
     66 H26        13.1909   37.8954   26.8581 H       1  <0>         0.1477
     67 H27        16.2657   36.3731   27.7249 H       1  <0>         0.4359
     68 H28        16.0639   36.6254   29.4266 H       1  <0>         0.4359
     69 H29        10.9473   38.5513   32.9000 H       1  <0>         0.1471
     70 H30         7.5979   40.7602   32.3597 H       1  <0>         0.1497
@<TRIPOS>BOND
     1     1    39    1
     2     2     4   ar
     3     2     5   ar
     4     3     6   ar
     5     3     7   ar
     6     4     8   ar
     7     5     9   ar
     8     6    10   ar
     9     7    11   ar
    10     8    20   ar
    11     9    20   ar
    12    10    21   ar
    13    11    21   ar
    14    12    14   ar
    15    12    22   ar
    16    13    15   ar
    17    13    22   ar
    18    14    23   ar
    19    15    23   ar
    20    16    17   ar
    21    16    24   ar
    22    17    25   ar
    23    18    24   ar
    24    18    26   ar
    25    19    20    1
    26    19    40    1
    27    21    27    1
    28    22    29    1
    29    23    34    1
    30    24    28    1
    31    25    26   ar
    32    25    40    1
    33    26    39    1
    34    27    30    1
    35    27    35    1
    36    28    31    1
    37    28    34    1
    38    29    32    1
    39    29    33    2
    40    30    36    1
    41    30    37    2
    42    31    35   am
    43    31    38    2
    44     1    41    1
    45     1    42    1
    46     1    43    1
    47     2    44    1
    48     3    45    1
    49     4    46    1
    50     5    47    1
    51     6    48    1
    52     7    49    1
    53     8    50    1
    54     9    51    1
    55    10    52    1
    56    11    53    1
    57    12    54    1
    58    13    55    1
    59    14    56    1
    60    15    57    1
    61    16    58    1
    62    17    59    1
    63    18    60    1
    64    19    61    1
    65    19    62    1
    66    27    63    1
    67    28    64    1
    68    32    65    1
    69    32    66    1
    70    33    67    1
    71    33    68    1
    72    34    69    1
    73    35    70    1
@<TRIPOS>SUBSTRUCTURE
     1 <0>         1 TEMP              0 ****  ****    0 ROOT

