
##########                                Name:          YAM_1_3BZ3
##########                    Molecular_Weight:              505.48
##########                DOCK_Rotatable_Bonds:                   8
##########                       Formal_Charge:         0.000100255
##########                     HBond_Acceptors:                  14
##########                        HBond_Donors:                   2
##########                         Heavy_Atoms:                  35
##########                            HA_RMSDs:               0.560
##########                            HA_RMSDh:               0.560
##########                            HA_RMSDm:               0.536
##########                          Grid_Score:          -63.508099
##########                     Grid_vdw_energy:          -59.178913
##########                      Grid_es_energy:           -4.329185
##########           Internal_energy_repulsive:           23.292801

@<TRIPOS>MOLECULE
YAM_1_3BZ3
 53 56 1 0 0
SMALL
USER_CHARGES


@<TRIPOS>ATOM
      1 C1          6.9602    1.6881    8.4474 C.3     1  <0>         0.0247
      2 C2          6.2846    4.3442   10.5982 C.3     1  <0>         0.0738
      3 C3          6.0302    5.2636    5.0744 C.ar    1  <0>        -0.0432
      4 C4          7.3063    4.7179    5.0695 C.ar    1  <0>        -0.0523
      5 C5         11.2895    0.7571    4.3994 C.ar    1  <0>        -0.0384
      6 C6         10.5123    0.0655    3.4849 C.ar    1  <0>        -0.0339
      7 C7          5.2157    5.0614    6.1719 C.ar    1  <0>         0.0298
      8 C8         13.2424    0.3564    3.0499 C.ar    1  <0>        -0.0311
      9 C9         13.7589    4.6046    6.9182 C.ar    1  <0>         0.0462
     10 C10        12.8089   -1.0487    0.8575 C.2     1  <0>         0.0139
     11 C11         9.1301    3.4402    6.1922 C.3     1  <0>         0.0390
     12 C12        12.6600    0.9089    4.1855 C.ar    1  <0>         0.0343
     13 C13         7.7409    4.0190    6.1817 C.ar    1  <0>         0.0109
     14 C14        11.1033   -0.4861    2.3444 C.ar    1  <0>         0.0752
     15 C15        12.4739   -0.3425    2.1514 C.ar    1  <0>         0.0074
     16 C16        12.4471    5.0016    7.0935 C.ar    1  <0>         0.1125
     17 C17        11.4461    4.1813    6.5319 C.ar    1  <0>         0.1358
     18 C18         6.8762    3.8611    7.2657 C.ar    1  <0>         0.1445
     19 C19        13.0843    2.7402    5.7585 C.ar    1  <0>         0.2212
     20 C20        11.4721   -1.5759    0.3810 C.2     1  <0>         0.2714
     21 C21        12.1969    6.2750    7.8757 C.3     1  <0>         0.4220
     22 N1          5.6451    4.3744    7.2210 N.ar    1  <0>        -0.2385
     23 N2         14.0413    3.4931    6.2632 N.ar    1  <0>        -0.2220
     24 N3         11.8097    3.0803    5.8721 N.ar    1  <0>        -0.1989
     25 N4         10.5468   -1.1841    1.2736 N.2     1  <0>        -0.2091
     26 N5         10.0956    4.4380    6.6670 N.pl3   1  <0>        -0.3243
     27 N6         13.4964    1.6281    5.0509 N.pl3   1  <0>        -0.2836
     28 N7          7.2523    3.1263    8.3924 N.pl3   1  <0>        -0.1932
     29 O1         11.2642   -2.2071   -0.6381 O.2     1  <0>        -0.2659
     30 O2          8.5004    2.8434   10.4235 O.2     1  <0>        -0.1552
     31 O3          8.4882    5.0355    9.2429 O.2     1  <0>        -0.1552
     32 F1         13.4143    6.7645    8.3463 F       1  <0>        -0.1657
     33 F2         11.6544    7.2772    7.0792 F       1  <0>        -0.1657
     34 F3         11.3516    6.0416    8.9561 F       1  <0>        -0.1657
     35 S1          7.8223    3.8869    9.7461 S.o2    1  <0>         0.0435
     36 H1          7.3244    1.2757    9.3999 H       1  <0>         0.0447
     37 H2          5.8740    1.5316    8.3717 H       1  <0>         0.0447
     38 H3          7.4633    1.1797    7.6117 H       1  <0>         0.0447
     39 H4          6.5257    4.8686   11.5346 H       1  <0>         0.0482
     40 H5          5.6894    5.0050    9.9508 H       1  <0>         0.0482
     41 H6          5.7072    3.4358   10.8251 H       1  <0>         0.0482
     42 H7          5.6783    5.8389    4.2310 H       1  <0>         0.0633
     43 H8          7.9502    4.8371    4.2106 H       1  <0>         0.0622
     44 H9         10.8328    1.1805    5.2817 H       1  <0>         0.0637
     45 H10         9.4514   -0.0475    3.6527 H       1  <0>         0.0639
     46 H11         4.2154    5.4688    6.1750 H       1  <0>         0.0830
     47 H12        14.3011    0.4771    2.8741 H       1  <0>         0.0643
     48 H13        14.5595    5.2078    7.3200 H       1  <0>         0.0837
     49 H14        13.7742   -1.1525    0.3845 H       1  <0>         0.0679
     50 H15         9.1530    2.5679    6.8620 H       1  <0>         0.0512
     51 H16         9.4009    3.1326    5.1713 H       1  <0>         0.0512
     52 H17         9.9141    5.2747    6.1503 H       1  <0>         0.1478
     53 H18        14.4411    1.3194    5.1617 H       1  <0>         0.1550
@<TRIPOS>BOND
     1     1    28    1
     2     2    35    1
     3     3     4   ar
     4     3     7   ar
     5     4    13   ar
     6     5     6   ar
     7     5    12   ar
     8     6    14   ar
     9     7    22   ar
    10     8    12   ar
    11     8    15   ar
    12     9    16   ar
    13     9    23   ar
    14    10    15    2
    15    10    20    1
    16    11    13    1
    17    11    26    1
    18    12    27    1
    19    13    18   ar
    20    14    15   ar
    21    14    25    2
    22    16    17   ar
    23    16    21    1
    24    17    24   ar
    25    17    26    1
    26    18    22   ar
    27    18    28    1
    28    19    23   ar
    29    19    24   ar
    30    19    27    1
    31    20    25    1
    32    20    29    2
    33    21    32    1
    34    21    33    1
    35    21    34    1
    36    28    35    1
    37    30    35    2
    38    31    35    2
    39     1    36    1
    40     1    37    1
    41     1    38    1
    42     2    39    1
    43     2    40    1
    44     2    41    1
    45     3    42    1
    46     4    43    1
    47     5    44    1
    48     6    45    1
    49     7    46    1
    50     8    47    1
    51     9    48    1
    52    10    49    1
    53    11    50    1
    54    11    51    1
    55    26    52    1
    56    27    53    1
@<TRIPOS>SUBSTRUCTURE
     1 <0>         1 TEMP              0 ****  ****    0 ROOT

