
##########                                Name:        665_401_2H7L
##########                    Molecular_Weight:             361.238
##########                DOCK_Rotatable_Bonds:                   4
##########                       Formal_Charge:        -0.000399873
##########                     HBond_Acceptors:                   4
##########                        HBond_Donors:                   1
##########                         Heavy_Atoms:                  22
##########                            HA_RMSDs:               2.313
##########                            HA_RMSDh:               2.313
##########                            HA_RMSDm:               1.929
##########                          Grid_Score:          -43.593620
##########                     Grid_vdw_energy:          -43.025467
##########                      Grid_es_energy:           -0.568152
##########           Internal_energy_repulsive:           12.961376

@<TRIPOS>MOLECULE
665_401_2H7L
 39 41 1 0 0
SMALL
USER_CHARGES


@<TRIPOS>ATOM
      1 C1         11.7529   36.0174   62.4405 C.ar    1  <0>        -0.0590
      2 C2         10.7419   35.9386   61.4019 C.ar    1  <0>        -0.0404
      3 C3         12.3101   34.7804   62.9658 C.ar    1  <0>        -0.0476
      4 C4         10.8751   33.4649   61.4475 C.ar    1  <0>        -0.0265
      5 C5          6.9987   30.0466   59.2768 C.3     1  <0>        -0.0121
      6 C6          7.8643   33.4989   57.9098 C.3     1  <0>         0.0367
      7 C7          6.0279   33.2732   59.4761 C.3     1  <0>         0.0268
      8 C8          6.7182   28.4943   59.1957 C.2     1  <0>        -0.0820
      9 C9          5.2368   28.0393   59.5796 C.2     1  <0>        -0.0659
     10 C10         4.0834   28.9546   59.0619 C.2     1  <0>        -0.0642
     11 C11         4.4705   30.3848   58.7915 C.2     1  <0>        -0.0635
     12 C12        10.2998   34.6158   60.8879 C.ar    1  <0>         0.0344
     13 C13        11.8354   33.5386   62.4389 C.ar    1  <0>         0.0196
     14 C14         5.9623   30.6944   58.3781 C.3     1  <0>         0.0480
     15 C15         7.3632   34.0437   59.1356 C.3     1  <0>         0.0598
     16 C16         7.0404   32.4745   57.4105 C.2     1  <0>         0.2168
     17 C17         8.2385   33.7956   60.3012 C.2     1  <0>         0.2223
     18 N1          9.0414   35.0240   60.5803 N.am    1  <0>        -0.2852
     19 N2          5.9218   32.2363   58.2042 N.am    1  <0>        -0.2939
     20 O1          7.3491   31.9024   56.3585 O.2     1  <0>        -0.2756
     21 O2          8.2750   32.7482   60.8549 O.2     1  <0>        -0.2751
     22 Br1        12.4070   31.8482   62.9813 Br      1  <0>        -0.0502
     23 H1         12.0845   36.9743   62.8155 H       1  <0>         0.0618
     24 H2         10.3098   36.8437   61.0014 H       1  <0>         0.0636
     25 H3         13.0659   34.7996   63.7370 H       1  <0>         0.0629
     26 H4         10.5588   32.4947   61.0939 H       1  <0>         0.0647
     27 H5          6.8997   30.4080   60.3110 H       1  <0>         0.0328
     28 H6          8.0164   30.2784   58.9298 H       1  <0>         0.0328
     29 H7          7.9148   34.3043   57.1624 H       1  <0>         0.0366
     30 H8          8.8667   33.0849   58.0936 H       1  <0>         0.0366
     31 H9          6.0840   32.7467   60.4403 H       1  <0>         0.0472
     32 H10         5.1611   33.9475   59.5384 H       1  <0>         0.0472
     33 H11         7.4788   27.7870   58.8999 H       1  <0>         0.0573
     34 H12         5.0442   27.1509   60.1627 H       1  <0>         0.0614
     35 H13         3.0791   28.5885   58.9085 H       1  <0>         0.0615
     36 H14         3.7448   31.1798   58.8784 H       1  <0>         0.0590
     37 H15         6.3231   30.2304   57.4482 H       1  <0>         0.0548
     38 H16         7.2625   35.1282   58.9808 H       1  <0>         0.0414
     39 H17         8.7142   35.9683   60.5471 H       1  <0>         0.1548
@<TRIPOS>BOND
     1     1     2   ar
     2     1     3   ar
     3     2    12   ar
     4     3    13   ar
     5     4    12   ar
     6     4    13   ar
     7     5     8    1
     8     5    14    1
     9     6    15    1
    10     6    16    1
    11     7    15    1
    12     7    19    1
    13     8     9    2
    14     9    10    1
    15    10    11    2
    16    11    14    1
    17    12    18    1
    18    13    22    1
    19    14    19    1
    20    15    17    1
    21    16    19   am
    22    16    20    2
    23    17    18   am
    24    17    21    2
    25     1    23    1
    26     2    24    1
    27     3    25    1
    28     4    26    1
    29     5    27    1
    30     5    28    1
    31     6    29    1
    32     6    30    1
    33     7    31    1
    34     7    32    1
    35     8    33    1
    36     9    34    1
    37    10    35    1
    38    11    36    1
    39    14    37    1
    40    15    38    1
    41    18    39    1
@<TRIPOS>SUBSTRUCTURE
     1 <0>         1 TEMP              0 ****  ****    0 ROOT

