
##########                                Name:        665_401_2H7L
##########                    Molecular_Weight:             361.238
##########                DOCK_Rotatable_Bonds:                   4
##########                       Formal_Charge:        -0.000399873
##########                     HBond_Acceptors:                   4
##########                        HBond_Donors:                   1
##########                         Heavy_Atoms:                  22
##########                            HA_RMSDs:               1.568
##########                            HA_RMSDh:               1.568
##########                            HA_RMSDm:               1.384
##########                          Grid_Score:          -42.521534
##########                     Grid_vdw_energy:          -41.895081
##########                      Grid_es_energy:           -0.626455
##########           Internal_energy_repulsive:           11.417323

@<TRIPOS>MOLECULE
665_401_2H7L
 39 41 1 0 0
SMALL
USER_CHARGES


@<TRIPOS>ATOM
      1 C1         13.0122   34.5245   62.2105 C.ar    1  <0>        -0.0590
      2 C2         11.7736   34.5530   61.4542 C.ar    1  <0>        -0.0404
      3 C3         13.3419   33.3237   62.9626 C.ar    1  <0>        -0.0476
      4 C4         11.2519   32.2500   62.2047 C.ar    1  <0>        -0.0265
      5 C5          6.7098   29.8616   59.4435 C.3     1  <0>        -0.0121
      6 C6          8.1799   33.2956   58.5436 C.3     1  <0>         0.0367
      7 C7          6.3668   33.1218   60.1434 C.3     1  <0>         0.0268
      8 C8          6.1785   28.4125   59.1079 C.2     1  <0>        -0.0820
      9 C9          4.6281   28.1617   59.3949 C.2     1  <0>        -0.0659
     10 C10         3.6643   29.3304   59.0192 C.2     1  <0>        -0.0642
     11 C11         4.2942   30.6982   58.9894 C.2     1  <0>        -0.0635
     12 C12        10.8733   33.3702   61.4494 C.ar    1  <0>         0.0344
     13 C13        12.4296   32.2230   62.9279 C.ar    1  <0>         0.0196
     14 C14         5.8317   30.8103   58.6497 C.3     1  <0>         0.0480
     15 C15         7.8076   33.7042   59.8646 C.3     1  <0>         0.0598
     16 C16         7.1804   32.5214   57.9280 C.2     1  <0>         0.2168
     17 C17         8.6520   33.1221   60.9298 C.2     1  <0>         0.2223
     18 N1          9.7342   34.0903   61.2802 N.am    1  <0>        -0.2852
     19 N2          6.0550   32.3445   58.7282 N.am    1  <0>        -0.2939
     20 O1          7.3623   32.0896   56.7836 O.2     1  <0>        -0.2756
     21 O2          8.4654   32.0349   61.3635 O.2     1  <0>        -0.2751
     22 Br1        12.6569   30.6053   63.8278 Br      1  <0>        -0.0502
     23 H1         13.6752   35.3770   62.2147 H       1  <0>         0.0618
     24 H2         11.5053   35.4361   60.8935 H       1  <0>         0.0636
     25 H3         14.2559   33.2647   63.5349 H       1  <0>         0.0629
     26 H4         10.6055   31.3851   62.2215 H       1  <0>         0.0647
     27 H5          6.6316   30.0664   60.5214 H       1  <0>         0.0328
     28 H6          7.7647   29.9684   59.1510 H       1  <0>         0.0328
     29 H7          8.3528   34.1947   57.9339 H       1  <0>         0.0366
     30 H8          9.0993   32.6951   58.6080 H       1  <0>         0.0366
     31 H9          6.3519   32.4398   61.0063 H       1  <0>         0.0472
     32 H10         5.6314   33.9115   60.3566 H       1  <0>         0.0472
     33 H11         6.8219   27.6416   58.7102 H       1  <0>         0.0573
     34 H12         4.2677   27.2383   59.8236 H       1  <0>         0.0614
     35 H13         2.6199   29.1697   58.7962 H       1  <0>         0.0615
     36 H14         3.7078   31.5814   59.1956 H       1  <0>         0.0590
     37 H15         6.1466   30.4447   57.6611 H       1  <0>         0.0548
     38 H16         7.8929   34.8006   59.8914 H       1  <0>         0.0414
     39 H17         9.6381   35.0814   61.3726 H       1  <0>         0.1548
@<TRIPOS>BOND
     1     1     2   ar
     2     1     3   ar
     3     2    12   ar
     4     3    13   ar
     5     4    12   ar
     6     4    13   ar
     7     5     8    1
     8     5    14    1
     9     6    15    1
    10     6    16    1
    11     7    15    1
    12     7    19    1
    13     8     9    2
    14     9    10    1
    15    10    11    2
    16    11    14    1
    17    12    18    1
    18    13    22    1
    19    14    19    1
    20    15    17    1
    21    16    19   am
    22    16    20    2
    23    17    18   am
    24    17    21    2
    25     1    23    1
    26     2    24    1
    27     3    25    1
    28     4    26    1
    29     5    27    1
    30     5    28    1
    31     6    29    1
    32     6    30    1
    33     7    31    1
    34     7    32    1
    35     8    33    1
    36     9    34    1
    37    10    35    1
    38    11    36    1
    39    14    37    1
    40    15    38    1
    41    18    39    1
@<TRIPOS>SUBSTRUCTURE
     1 <0>         1 TEMP              0 ****  ****    0 ROOT

