
##########                                Name:        665_401_2H7L
##########                    Molecular_Weight:             361.238
##########                DOCK_Rotatable_Bonds:                   4
##########                       Formal_Charge:        -0.000399873
##########                     HBond_Acceptors:                   4
##########                        HBond_Donors:                   1
##########                         Heavy_Atoms:                  22
##########                            HA_RMSDs:               1.589
##########                            HA_RMSDh:               1.589
##########                            HA_RMSDm:               1.264
##########                          Grid_Score:          -44.483700
##########                     Grid_vdw_energy:          -43.889507
##########                      Grid_es_energy:           -0.594193
##########           Internal_energy_repulsive:            8.127667

@<TRIPOS>MOLECULE
665_401_2H7L
 39 41 1 0 0
SMALL
USER_CHARGES


@<TRIPOS>ATOM
      1 C1         13.9587   33.7783   62.9440 C.ar    1  <0>        -0.0590
      2 C2         12.8236   34.2580   62.1771 C.ar    1  <0>        -0.0404
      3 C3         13.8983   32.4422   63.5165 C.ar    1  <0>        -0.0476
      4 C4         11.6421   32.1158   62.5688 C.ar    1  <0>        -0.0265
      5 C5          6.0500   32.5404   59.6191 C.3     1  <0>        -0.0121
      6 C6          9.2338   34.6684   58.7714 C.3     1  <0>         0.0367
      7 C7          7.6638   35.2768   60.5155 C.3     1  <0>         0.0268
      8 C8          4.8387   31.6451   59.1437 C.2     1  <0>        -0.0820
      9 C9          3.3896   32.2891   59.3288 C.2     1  <0>        -0.0659
     10 C10         3.2681   33.8091   58.9957 C.2     1  <0>        -0.0642
     11 C11         4.5481   34.5952   59.1060 C.2     1  <0>        -0.0635
     12 C12        11.6335   33.3894   61.9804 C.ar    1  <0>         0.0344
     13 C13        12.7211   31.6591   63.3023 C.ar    1  <0>         0.0196
     14 C14         5.9146   33.8451   58.8570 C.3     1  <0>         0.0480
     15 C15         9.1809   35.0267   60.1568 C.3     1  <0>         0.0598
     16 C16         7.9572   34.6450   58.1821 C.2     1  <0>         0.2168
     17 C17         9.6009   33.9425   61.0703 C.2     1  <0>         0.2223
     18 N1         10.7500   34.4178   61.8980 N.am    1  <0>        -0.2852
     19 N2          6.9398   34.9916   59.0668 N.am    1  <0>        -0.2939
     20 O1          7.8427   34.3452   56.9878 O.2     1  <0>        -0.2756
     21 O2          9.0869   32.8744   61.0649 O.2     1  <0>        -0.2751
     22 Br1        12.4383   29.9359   63.9572 Br      1  <0>        -0.0502
     23 H1         14.8301   34.4002   63.0868 H       1  <0>         0.0618
     24 H2         12.8439   35.2490   61.7480 H       1  <0>         0.0636
     25 H3         14.7246   32.0503   64.0910 H       1  <0>         0.0629
     26 H4         10.7819   31.4745   62.4454 H       1  <0>         0.0647
     27 H5          6.0046   32.7151   60.7041 H       1  <0>         0.0328
     28 H6          7.0093   32.0527   59.3913 H       1  <0>         0.0328
     29 H7          9.8516   35.4079   58.2410 H       1  <0>         0.0366
     30 H8          9.6788   33.6662   58.6847 H       1  <0>         0.0366
     31 H9          7.3036   34.5984   61.3029 H       1  <0>         0.0472
     32 H10         7.4837   36.2996   60.8780 H       1  <0>         0.0472
     33 H11         4.9814   30.6615   58.7211 H       1  <0>         0.0573
     34 H12         2.5437   31.7076   59.6645 H       1  <0>         0.0614
     35 H13         2.3326   34.2648   58.7066 H       1  <0>         0.0615
     36 H14         4.5314   35.6472   59.3497 H       1  <0>         0.0590
     37 H15         6.0598   33.4019   57.8607 H       1  <0>         0.0548
     38 H16         9.8505   35.8900   60.2850 H       1  <0>         0.0414
     39 H17        10.8499   35.3221   62.3129 H       1  <0>         0.1548
@<TRIPOS>BOND
     1     1     2   ar
     2     1     3   ar
     3     2    12   ar
     4     3    13   ar
     5     4    12   ar
     6     4    13   ar
     7     5     8    1
     8     5    14    1
     9     6    15    1
    10     6    16    1
    11     7    15    1
    12     7    19    1
    13     8     9    2
    14     9    10    1
    15    10    11    2
    16    11    14    1
    17    12    18    1
    18    13    22    1
    19    14    19    1
    20    15    17    1
    21    16    19   am
    22    16    20    2
    23    17    18   am
    24    17    21    2
    25     1    23    1
    26     2    24    1
    27     3    25    1
    28     4    26    1
    29     5    27    1
    30     5    28    1
    31     6    29    1
    32     6    30    1
    33     7    31    1
    34     7    32    1
    35     8    33    1
    36     9    34    1
    37    10    35    1
    38    11    36    1
    39    14    37    1
    40    15    38    1
    41    18    39    1
@<TRIPOS>SUBSTRUCTURE
     1 <0>         1 TEMP              0 ****  ****    0 ROOT

