
##########                                Name:        665_401_2H7L
##########                    Molecular_Weight:             361.238
##########                DOCK_Rotatable_Bonds:                   4
##########                       Formal_Charge:        -0.000399873
##########                     HBond_Acceptors:                   4
##########                        HBond_Donors:                   1
##########                         Heavy_Atoms:                  22
##########                            HA_RMSDs:               1.190
##########                            HA_RMSDh:               1.190
##########                            HA_RMSDm:               1.149
##########                          Grid_Score:          -44.728420
##########                     Grid_vdw_energy:          -44.347790
##########                      Grid_es_energy:           -0.380630
##########           Internal_energy_repulsive:           11.299119

@<TRIPOS>MOLECULE
665_401_2H7L
 39 41 1 0 0
SMALL
USER_CHARGES


@<TRIPOS>ATOM
      1 C1         13.8764   34.0859   62.9872 C.ar    1  <0>        -0.0590
      2 C2         12.7469   34.5962   62.2318 C.ar    1  <0>        -0.0404
      3 C3         13.8216   32.7202   63.4857 C.ar    1  <0>        -0.0476
      4 C4         11.5814   32.4251   62.4907 C.ar    1  <0>        -0.0265
      5 C5          7.6918   32.2088   58.0828 C.3     1  <0>        -0.0121
      6 C6          9.5639   35.2825   58.9919 C.3     1  <0>         0.0367
      7 C7          7.4412   35.0110   60.1309 C.3     1  <0>         0.0268
      8 C8          6.9432   31.0809   57.2691 C.2     1  <0>        -0.0820
      9 C9          5.4001   30.8804   57.6263 C.2     1  <0>        -0.0659
     10 C10         4.5786   32.1848   57.8709 C.2     1  <0>        -0.0642
     11 C11         5.3851   33.3794   58.3077 C.2     1  <0>        -0.0635
     12 C12        11.5681   33.7287   61.9721 C.ar    1  <0>         0.0344
     13 C13        12.6551   31.9392   63.2132 C.ar    1  <0>         0.0196
     14 C14         6.8926   33.4769   57.8492 C.3     1  <0>         0.0480
     15 C15         8.9806   35.3186   60.2992 C.3     1  <0>         0.0598
     16 C16         8.6149   34.9867   57.9973 C.2     1  <0>         0.2168
     17 C17         9.4717   34.2553   61.2017 C.2     1  <0>         0.2223
     18 N1         10.6757   34.7519   61.9332 N.am    1  <0>        -0.2852
     19 N2          7.3287   34.8161   58.5019 N.am    1  <0>        -0.2939
     20 O1          8.9726   34.9146   56.8158 O.2     1  <0>        -0.2756
     21 O2          8.9642   33.1855   61.2559 O.2     1  <0>        -0.2751
     22 Br1        12.3806   30.1805   63.7699 Br      1  <0>        -0.0502
     23 H1         14.7396   34.7071   63.1754 H       1  <0>         0.0618
     24 H2         12.7631   35.6091   61.8573 H       1  <0>         0.0636
     25 H3         14.6440   32.3053   64.0494 H       1  <0>         0.0629
     26 H4         10.7293   31.7837   62.3209 H       1  <0>         0.0647
     27 H5          7.7262   31.9604   59.1538 H       1  <0>         0.0328
     28 H6          8.7255   32.3273   57.7260 H       1  <0>         0.0328
     29 H7         10.0029   36.2677   58.7761 H       1  <0>         0.0366
     30 H8         10.3425   34.5056   58.9763 H       1  <0>         0.0366
     31 H9          7.1329   34.1099   60.6813 H       1  <0>         0.0472
     32 H10         6.8087   35.8328   60.4976 H       1  <0>         0.0472
     33 H11         7.4425   30.4843   56.5200 H       1  <0>         0.0573
     34 H12         4.9513   29.9004   57.6945 H       1  <0>         0.0614
     35 H13         3.5079   32.2277   57.7364 H       1  <0>         0.0615
     36 H14         4.9427   34.1511   58.9201 H       1  <0>         0.0590
     37 H15         7.0769   33.5207   56.7656 H       1  <0>         0.0548
     38 H16         9.2271   36.3015   60.7274 H       1  <0>         0.0414
     39 H17        10.8010   35.6651   62.3211 H       1  <0>         0.1548
@<TRIPOS>BOND
     1     1     2   ar
     2     1     3   ar
     3     2    12   ar
     4     3    13   ar
     5     4    12   ar
     6     4    13   ar
     7     5     8    1
     8     5    14    1
     9     6    15    1
    10     6    16    1
    11     7    15    1
    12     7    19    1
    13     8     9    2
    14     9    10    1
    15    10    11    2
    16    11    14    1
    17    12    18    1
    18    13    22    1
    19    14    19    1
    20    15    17    1
    21    16    19   am
    22    16    20    2
    23    17    18   am
    24    17    21    2
    25     1    23    1
    26     2    24    1
    27     3    25    1
    28     4    26    1
    29     5    27    1
    30     5    28    1
    31     6    29    1
    32     6    30    1
    33     7    31    1
    34     7    32    1
    35     8    33    1
    36     9    34    1
    37    10    35    1
    38    11    36    1
    39    14    37    1
    40    15    38    1
    41    18    39    1
@<TRIPOS>SUBSTRUCTURE
     1 <0>         1 TEMP              0 ****  ****    0 ROOT

