
##########                                Name:        665_401_2H7L
##########                    Molecular_Weight:             361.238
##########                DOCK_Rotatable_Bonds:                   4
##########                       Formal_Charge:        -0.000399873
##########                     HBond_Acceptors:                   4
##########                        HBond_Donors:                   1
##########                         Heavy_Atoms:                  22
##########                            HA_RMSDs:               1.584
##########                            HA_RMSDh:               1.584
##########                            HA_RMSDm:               1.247
##########                          Grid_Score:          -46.043320
##########                     Grid_vdw_energy:          -45.426941
##########                      Grid_es_energy:           -0.616379
##########           Internal_energy_repulsive:            7.277313

@<TRIPOS>MOLECULE
665_401_2H7L
 39 41 1 0 0
SMALL
USER_CHARGES


@<TRIPOS>ATOM
      1 C1         13.8847   33.5614   62.6582 C.ar    1  <0>        -0.0590
      2 C2         12.7092   34.0495   61.9606 C.ar    1  <0>        -0.0404
      3 C3         13.7901   32.3077   63.3903 C.ar    1  <0>        -0.0476
      4 C4         11.4235   32.0750   62.7270 C.ar    1  <0>        -0.0265
      5 C5          6.2058   32.5513   59.0364 C.3     1  <0>        -0.0121
      6 C6          9.3327   34.7175   58.7107 C.3     1  <0>         0.0367
      7 C7          7.6224   35.3298   60.3158 C.3     1  <0>         0.0268
      8 C8          4.9799   31.7091   58.5047 C.2     1  <0>        -0.0820
      9 C9          3.5362   32.2861   58.8678 C.2     1  <0>        -0.0659
     10 C10         3.3741   33.8355   58.7722 C.2     1  <0>        -0.0642
     11 C11         4.6477   34.6252   58.9233 C.2     1  <0>        -0.0635
     12 C12        11.4433   33.2711   61.9938 C.ar    1  <0>         0.0344
     13 C13        12.5414   31.6109   63.3945 C.ar    1  <0>         0.0196
     14 C14         6.0065   33.9509   58.4862 C.3     1  <0>         0.0480
     15 C15         9.1613   35.0581   60.0910 C.3     1  <0>         0.0598
     16 C16         8.1141   34.7241   58.0090 C.2     1  <0>         0.2168
     17 C17         9.4800   33.9548   61.0223 C.2     1  <0>         0.2223
     18 N1         10.6350   34.3567   61.8801 N.am    1  <0>        -0.2852
     19 N2          7.0270   35.0765   58.8040 N.am    1  <0>        -0.2939
     20 O1          8.1026   34.4422   56.8050 O.2     1  <0>        -0.2756
     21 O2          8.8945   32.9242   61.0080 O.2     1  <0>        -0.2751
     22 Br1        12.2070   30.0025   64.2775 Br      1  <0>        -0.0502
     23 H1         14.8104   34.1173   62.6344 H       1  <0>         0.0618
     24 H2         12.7545   34.9809   61.4158 H       1  <0>         0.0636
     25 H3         14.6445   31.9119   63.9192 H       1  <0>         0.0629
     26 H4         10.5097   31.5012   62.7710 H       1  <0>         0.0647
     27 H5          6.2243   32.5628   60.1362 H       1  <0>         0.0328
     28 H6          7.1558   32.1242   58.6831 H       1  <0>         0.0328
     29 H7         10.0076   35.4531   58.2488 H       1  <0>         0.0366
     30 H8          9.7676   33.7089   58.6495 H       1  <0>         0.0366
     31 H9          7.1820   34.6474   61.0577 H       1  <0>         0.0472
     32 H10         7.4269   36.3507   60.6758 H       1  <0>         0.0472
     33 H11         5.1098   30.8022   57.9329 H       1  <0>         0.0573
     34 H12         2.7204   31.6426   59.1620 H       1  <0>         0.0614
     35 H13         2.4167   34.3079   58.6091 H       1  <0>         0.0615
     36 H14         4.6317   35.6290   59.3213 H       1  <0>         0.0590
     37 H15         6.0966   33.6631   57.4283 H       1  <0>         0.0548
     38 H16         9.8306   35.9079   60.2915 H       1  <0>         0.0414
     39 H17        10.7847   35.2552   62.2927 H       1  <0>         0.1548
@<TRIPOS>BOND
     1     1     2   ar
     2     1     3   ar
     3     2    12   ar
     4     3    13   ar
     5     4    12   ar
     6     4    13   ar
     7     5     8    1
     8     5    14    1
     9     6    15    1
    10     6    16    1
    11     7    15    1
    12     7    19    1
    13     8     9    2
    14     9    10    1
    15    10    11    2
    16    11    14    1
    17    12    18    1
    18    13    22    1
    19    14    19    1
    20    15    17    1
    21    16    19   am
    22    16    20    2
    23    17    18   am
    24    17    21    2
    25     1    23    1
    26     2    24    1
    27     3    25    1
    28     4    26    1
    29     5    27    1
    30     5    28    1
    31     6    29    1
    32     6    30    1
    33     7    31    1
    34     7    32    1
    35     8    33    1
    36     9    34    1
    37    10    35    1
    38    11    36    1
    39    14    37    1
    40    15    38    1
    41    18    39    1
@<TRIPOS>SUBSTRUCTURE
     1 <0>         1 TEMP              0 ****  ****    0 ROOT

