
##########                                Name:        665_401_2H7L
##########                    Molecular_Weight:             361.238
##########                DOCK_Rotatable_Bonds:                   4
##########                       Formal_Charge:        -0.000399873
##########                     HBond_Acceptors:                   4
##########                        HBond_Donors:                   1
##########                         Heavy_Atoms:                  22
##########                            HA_RMSDs:               2.069
##########                            HA_RMSDh:               2.069
##########                            HA_RMSDm:               1.723
##########                          Grid_Score:          -43.884102
##########                     Grid_vdw_energy:          -43.200203
##########                      Grid_es_energy:           -0.683897
##########           Internal_energy_repulsive:           11.976949

@<TRIPOS>MOLECULE
665_401_2H7L
 39 41 1 0 0
SMALL
USER_CHARGES


@<TRIPOS>ATOM
      1 C1         11.9107   35.9648   62.8027 C.ar    1  <0>        -0.0590
      2 C2         10.9259   35.8823   61.7395 C.ar    1  <0>        -0.0404
      3 C3         12.4910   34.7318   63.3122 C.ar    1  <0>        -0.0476
      4 C4         11.1283   33.4129   61.7314 C.ar    1  <0>        -0.0265
      5 C5          7.3393   30.0670   58.9275 C.3     1  <0>        -0.0121
      6 C6          8.2406   33.5621   57.9764 C.3     1  <0>         0.0367
      7 C7          6.3494   33.3304   59.4752 C.3     1  <0>         0.0268
      8 C8          6.9559   28.5386   58.8191 C.2     1  <0>        -0.0820
      9 C9          5.5288   28.1407   59.4141 C.2     1  <0>        -0.0659
     10 C10         4.3659   29.1428   59.1326 C.2     1  <0>        -0.0642
     11 C11         4.7914   30.5638   58.8715 C.2     1  <0>        -0.0635
     12 C12        10.5332   34.5602   61.1853 C.ar    1  <0>         0.0344
     13 C13        12.0637   33.4900   62.7462 C.ar    1  <0>         0.0196
     14 C14         6.2153   30.8177   58.2388 C.3     1  <0>         0.0480
     15 C15         7.7241   34.0620   59.2149 C.3     1  <0>         0.0598
     16 C16         7.3924   32.6003   57.3994 C.2     1  <0>         0.2168
     17 C17         8.5527   33.7171   60.3900 C.2     1  <0>         0.2223
     18 N1          9.2709   34.9403   60.8582 N.am    1  <0>        -0.2852
     19 N2          6.2414   32.3671   58.1469 N.am    1  <0>        -0.2939
     20 O1          7.7103   32.0720   56.3274 O.2     1  <0>        -0.2756
     21 O2          8.6199   32.6130   60.8161 O.2     1  <0>        -0.2751
     22 Br1        12.6709   31.8039   63.2626 Br      1  <0>        -0.0502
     23 H1         12.2065   36.9215   63.2071 H       1  <0>         0.0618
     24 H2         10.4773   36.7843   61.3501 H       1  <0>         0.0636
     25 H3         13.2284   34.7539   64.1009 H       1  <0>         0.0629
     26 H4         10.8477   32.4429   61.3484 H       1  <0>         0.0647
     27 H5          7.4268   30.3741   59.9801 H       1  <0>         0.0328
     28 H6          8.3016   30.2644   58.4327 H       1  <0>         0.0328
     29 H7          8.3460   34.4029   57.2752 H       1  <0>         0.0366
     30 H8          9.2197   33.0979   58.1662 H       1  <0>         0.0366
     31 H9          6.3549   32.7521   60.4109 H       1  <0>         0.0472
     32 H10         5.5086   34.0357   59.5489 H       1  <0>         0.0472
     33 H11         7.6160   27.8102   58.3717 H       1  <0>         0.0573
     34 H12         5.3772   27.2321   59.9779 H       1  <0>         0.0614
     35 H13         3.3296   28.8389   59.1254 H       1  <0>         0.0615
     36 H14         4.1380   31.3895   59.1114 H       1  <0>         0.0590
     37 H15         6.3960   30.3888   57.2421 H       1  <0>         0.0548
     38 H16         7.6714   35.1563   59.1157 H       1  <0>         0.0414
     39 H17         8.8936   35.8644   60.9194 H       1  <0>         0.1548
@<TRIPOS>BOND
     1     1     2   ar
     2     1     3   ar
     3     2    12   ar
     4     3    13   ar
     5     4    12   ar
     6     4    13   ar
     7     5     8    1
     8     5    14    1
     9     6    15    1
    10     6    16    1
    11     7    15    1
    12     7    19    1
    13     8     9    2
    14     9    10    1
    15    10    11    2
    16    11    14    1
    17    12    18    1
    18    13    22    1
    19    14    19    1
    20    15    17    1
    21    16    19   am
    22    16    20    2
    23    17    18   am
    24    17    21    2
    25     1    23    1
    26     2    24    1
    27     3    25    1
    28     4    26    1
    29     5    27    1
    30     5    28    1
    31     6    29    1
    32     6    30    1
    33     7    31    1
    34     7    32    1
    35     8    33    1
    36     9    34    1
    37    10    35    1
    38    11    36    1
    39    14    37    1
    40    15    38    1
    41    18    39    1
@<TRIPOS>SUBSTRUCTURE
     1 <0>         1 TEMP              0 ****  ****    0 ROOT

