
##########                                Name:        665_401_2H7L
##########                    Molecular_Weight:             361.238
##########                DOCK_Rotatable_Bonds:                   4
##########                       Formal_Charge:        -0.000399873
##########                     HBond_Acceptors:                   4
##########                        HBond_Donors:                   1
##########                         Heavy_Atoms:                  22
##########                            HA_RMSDs:               1.456
##########                            HA_RMSDh:               1.456
##########                            HA_RMSDm:               1.285
##########                          Grid_Score:          -44.121792
##########                     Grid_vdw_energy:          -43.585243
##########                      Grid_es_energy:           -0.536547
##########           Internal_energy_repulsive:           10.958213

@<TRIPOS>MOLECULE
665_401_2H7L
 39 41 1 0 0
SMALL
USER_CHARGES


@<TRIPOS>ATOM
      1 C1         14.1276   34.0154   62.3520 C.ar    1  <0>        -0.0590
      2 C2         12.8722   34.5180   61.8244 C.ar    1  <0>        -0.0404
      3 C3         14.1467   32.6978   62.9684 C.ar    1  <0>        -0.0476
      4 C4         11.7323   32.4329   62.5258 C.ar    1  <0>        -0.0265
      5 C5          7.0101   32.4593   58.6760 C.3     1  <0>        -0.0121
      6 C6          9.5276   35.4809   59.1562 C.3     1  <0>         0.0367
      7 C7          7.4630   35.2141   60.3984 C.3     1  <0>         0.0268
      8 C8          6.3331   31.4218   57.6962 C.2     1  <0>        -0.0820
      9 C9          4.7763   31.6453   57.4220 C.2     1  <0>        -0.0659
     10 C10         4.3174   33.1268   57.2473 C.2     1  <0>        -0.0642
     11 C11         5.2029   34.1549   57.9011 C.2     1  <0>        -0.0635
     12 C12        11.6405   33.6904   61.9104 C.ar    1  <0>         0.0344
     13 C13        12.9266   31.9547   63.0316 C.ar    1  <0>         0.0196
     14 C14         6.7369   33.8247   58.0740 C.3     1  <0>         0.0480
     15 C15         9.0189   35.4639   60.4947 C.3     1  <0>         0.0598
     16 C16         8.5155   35.2695   58.2031 C.2     1  <0>         0.2168
     17 C17         9.5223   34.3380   61.3105 C.2     1  <0>         0.2223
     18 N1         10.7925   34.7491   61.9807 N.am    1  <0>        -0.2852
     19 N2          7.2541   35.1120   58.7704 N.am    1  <0>        -0.2939
     20 O1          8.8048   35.2508   57.0010 O.2     1  <0>        -0.2756
     21 O2          8.9738   33.2880   61.3487 O.2     1  <0>        -0.2751
     22 Br1        12.7335   30.2609   63.7880 Br      1  <0>        -0.0502
     23 H1         15.0287   34.6073   62.2883 H       1  <0>         0.0618
     24 H2         12.8331   35.4960   61.3680 H       1  <0>         0.0636
     25 H3         15.0626   32.2897   63.3697 H       1  <0>         0.0629
     26 H4         10.8456   31.8218   62.6066 H       1  <0>         0.0647
     27 H5          6.5780   32.3835   59.6847 H       1  <0>         0.0328
     28 H6          8.0919   32.2756   58.7529 H       1  <0>         0.0328
     29 H7          9.9876   36.4621   58.9680 H       1  <0>         0.0366
     30 H8         10.2771   34.6820   59.0554 H       1  <0>         0.0366
     31 H9          7.1548   34.2945   60.9173 H       1  <0>         0.0472
     32 H10         6.8802   36.0341   60.8434 H       1  <0>         0.0472
     33 H11         6.8872   30.6139   57.2414 H       1  <0>         0.0573
     34 H12         4.0819   30.8203   57.3610 H       1  <0>         0.0614
     35 H13         3.4281   33.3957   56.6966 H       1  <0>         0.0615
     36 H14         4.7980   35.0957   58.2435 H       1  <0>         0.0590
     37 H15         7.3113   33.6513   57.1520 H       1  <0>         0.0548
     38 H16         9.3223   36.4137   60.9594 H       1  <0>         0.0414
     39 H17        10.9825   35.6360   62.4017 H       1  <0>         0.1548
@<TRIPOS>BOND
     1     1     2   ar
     2     1     3   ar
     3     2    12   ar
     4     3    13   ar
     5     4    12   ar
     6     4    13   ar
     7     5     8    1
     8     5    14    1
     9     6    15    1
    10     6    16    1
    11     7    15    1
    12     7    19    1
    13     8     9    2
    14     9    10    1
    15    10    11    2
    16    11    14    1
    17    12    18    1
    18    13    22    1
    19    14    19    1
    20    15    17    1
    21    16    19   am
    22    16    20    2
    23    17    18   am
    24    17    21    2
    25     1    23    1
    26     2    24    1
    27     3    25    1
    28     4    26    1
    29     5    27    1
    30     5    28    1
    31     6    29    1
    32     6    30    1
    33     7    31    1
    34     7    32    1
    35     8    33    1
    36     9    34    1
    37    10    35    1
    38    11    36    1
    39    14    37    1
    40    15    38    1
    41    18    39    1
@<TRIPOS>SUBSTRUCTURE
     1 <0>         1 TEMP              0 ****  ****    0 ROOT

