
##########                                Name:        665_401_2H7L
##########                    Molecular_Weight:             361.238
##########                DOCK_Rotatable_Bonds:                   4
##########                       Formal_Charge:        -0.000399873
##########                     HBond_Acceptors:                   4
##########                        HBond_Donors:                   1
##########                         Heavy_Atoms:                  22
##########                            HA_RMSDs:               2.255
##########                            HA_RMSDh:               2.255
##########                            HA_RMSDm:               1.819
##########                          Grid_Score:          -44.679279
##########                     Grid_vdw_energy:          -43.937553
##########                      Grid_es_energy:           -0.741727
##########           Internal_energy_repulsive:            9.611054

@<TRIPOS>MOLECULE
665_401_2H7L
 39 41 1 0 0
SMALL
USER_CHARGES


@<TRIPOS>ATOM
      1 C1         12.0915   35.5662   62.1861 C.ar    1  <0>        -0.0590
      2 C2         10.9184   35.2832   61.3795 C.ar    1  <0>        -0.0404
      3 C3         12.7394   34.4662   62.8837 C.ar    1  <0>        -0.0476
      4 C4         11.0754   32.8838   61.9769 C.ar    1  <0>        -0.0265
      5 C5          6.8639   29.4557   59.3764 C.3     1  <0>        -0.0121
      6 C6          7.7805   32.9459   58.2711 C.3     1  <0>         0.0367
      7 C7          6.0678   32.7174   59.9715 C.3     1  <0>         0.0268
      8 C8          6.4582   27.9348   59.2461 C.2     1  <0>        -0.0820
      9 C9          5.0319   27.5463   59.8492 C.2     1  <0>        -0.0659
     10 C10         3.8802   28.5690   59.5971 C.2     1  <0>        -0.0642
     11 C11         4.3227   29.9883   59.3557 C.2     1  <0>        -0.0635
     12 C12        10.4045   33.8928   61.2696 C.ar    1  <0>         0.0344
     13 C13        12.1907   33.1527   62.7480 C.ar    1  <0>         0.0196
     14 C14         5.7434   30.2335   58.7125 C.3     1  <0>         0.0480
     15 C15         7.4184   33.4295   59.5695 C.3     1  <0>         0.0598
     16 C16         6.8530   32.0115   57.7771 C.2     1  <0>         0.2168
     17 C17         8.3682   33.0457   60.6358 C.2     1  <0>         0.2223
     18 N1          9.1090   34.2601   61.0914 N.am    1  <0>        -0.2852
     19 N2          5.7900   31.7837   58.6467 N.am    1  <0>        -0.2939
     20 O1          7.0362   31.4998   56.6664 O.2     1  <0>        -0.2756
     21 O2          8.4975   31.9237   60.9957 O.2     1  <0>        -0.2751
     22 Br1        12.8590   31.6152   63.5652 Br      1  <0>        -0.0502
     23 H1         12.4754   36.5725   62.2666 H       1  <0>         0.0618
     24 H2         10.4174   36.0853   60.8577 H       1  <0>         0.0636
     25 H3         13.6158   34.6380   63.4909 H       1  <0>         0.0629
     26 H4         10.7104   31.8691   61.9174 H       1  <0>         0.0647
     27 H5          6.9665   29.7435   60.4331 H       1  <0>         0.0328
     28 H6          7.8237   29.6484   58.8750 H       1  <0>         0.0328
     29 H7          7.8224   33.7990   57.5780 H       1  <0>         0.0366
     30 H8          8.7653   32.4605   58.3394 H       1  <0>         0.0366
     31 H9          6.1681   32.1200   60.8897 H       1  <0>         0.0472
     32 H10         5.2552   33.4360   60.1536 H       1  <0>         0.0472
     33 H11         7.1035   27.2052   58.7794 H       1  <0>         0.0573
     34 H12         4.8735   26.6304   60.3990 H       1  <0>         0.0614
     35 H13         2.8397   28.2795   59.5957 H       1  <0>         0.0615
     36 H14         3.6833   30.8186   59.6166 H       1  <0>         0.0590
     37 H15         5.9078   29.8193   57.7068 H       1  <0>         0.0548
     38 H16         7.3769   34.5263   59.4971 H       1  <0>         0.0414
     39 H17         8.7240   35.1714   61.2377 H       1  <0>         0.1548
@<TRIPOS>BOND
     1     1     2   ar
     2     1     3   ar
     3     2    12   ar
     4     3    13   ar
     5     4    12   ar
     6     4    13   ar
     7     5     8    1
     8     5    14    1
     9     6    15    1
    10     6    16    1
    11     7    15    1
    12     7    19    1
    13     8     9    2
    14     9    10    1
    15    10    11    2
    16    11    14    1
    17    12    18    1
    18    13    22    1
    19    14    19    1
    20    15    17    1
    21    16    19   am
    22    16    20    2
    23    17    18   am
    24    17    21    2
    25     1    23    1
    26     2    24    1
    27     3    25    1
    28     4    26    1
    29     5    27    1
    30     5    28    1
    31     6    29    1
    32     6    30    1
    33     7    31    1
    34     7    32    1
    35     8    33    1
    36     9    34    1
    37    10    35    1
    38    11    36    1
    39    14    37    1
    40    15    38    1
    41    18    39    1
@<TRIPOS>SUBSTRUCTURE
     1 <0>         1 TEMP              0 ****  ****    0 ROOT

