
##########                                Name:        665_401_2H7L
##########                    Molecular_Weight:             361.238
##########                DOCK_Rotatable_Bonds:                   4
##########                       Formal_Charge:        -0.000399873
##########                     HBond_Acceptors:                   4
##########                        HBond_Donors:                   1
##########                         Heavy_Atoms:                  22
##########                            HA_RMSDs:               3.908
##########                            HA_RMSDh:               3.864
##########                            HA_RMSDm:               2.979
##########                          Grid_Score:          -42.049461
##########                     Grid_vdw_energy:          -41.676895
##########                      Grid_es_energy:           -0.372568
##########           Internal_energy_repulsive:           11.981171

@<TRIPOS>MOLECULE
665_401_2H7L
 39 41 1 0 0
SMALL
USER_CHARGES


@<TRIPOS>ATOM
      1 C1         10.5688   36.3910   60.6273 C.ar    1  <0>        -0.0590
      2 C2          9.5262   35.6329   59.9602 C.ar    1  <0>        -0.0404
      3 C3         11.4737   35.6903   61.5255 C.ar    1  <0>        -0.0476
      4 C4         10.3040   33.5628   61.0774 C.ar    1  <0>        -0.0265
      5 C5          6.6557   28.8836   61.2899 C.3     1  <0>        -0.0121
      6 C6          7.0916   31.4023   58.2479 C.3     1  <0>         0.0367
      7 C7          5.4604   31.6571   60.0231 C.3     1  <0>         0.0268
      8 C8          6.7124   27.3908   61.8029 C.2     1  <0>        -0.0820
      9 C9          5.3039   26.7294   62.1601 C.2     1  <0>        -0.0659
     10 C10         4.1271   27.0579   61.1889 C.2     1  <0>        -0.0642
     11 C11         4.2707   28.3435   60.4174 C.2     1  <0>        -0.0635
     12 C12         9.4013   34.1699   60.1914 C.ar    1  <0>         0.0344
     13 C13        11.2952   34.2843   61.7159 C.ar    1  <0>         0.0196
     14 C14         5.7242   28.8668   60.0927 C.3     1  <0>         0.0480
     15 C15         6.6163   32.3554   59.2051 C.3     1  <0>         0.0598
     16 C16         6.4069   30.1773   58.3365 C.2     1  <0>         0.2168
     17 C17         7.6184   32.7256   60.2273 C.2     1  <0>         0.2223
     18 N1          8.0579   34.1341   59.9940 N.am    1  <0>        -0.2852
     19 N2          5.4159   30.1739   59.3143 N.am    1  <0>        -0.2939
     20 O1          6.7128   29.2518   57.5755 O.2     1  <0>        -0.2756
     21 O2          7.9972   31.9608   61.0498 O.2     1  <0>        -0.2751
     22 Br1        12.3338   33.2064   62.8285 Br      1  <0>        -0.0502
     23 H1         10.6707   37.4531   60.4605 H       1  <0>         0.0618
     24 H2          8.8392   36.1334   59.2938 H       1  <0>         0.0636
     25 H3         12.2630   36.2205   62.0375 H       1  <0>         0.0629
     26 H4         10.2222   32.5025   61.2658 H       1  <0>         0.0647
     27 H5          6.2716   29.5520   62.0745 H       1  <0>         0.0328
     28 H6          7.6569   29.2357   61.0010 H       1  <0>         0.0328
     29 H7          6.9439   31.8147   57.2389 H       1  <0>         0.0366
     30 H8          8.1605   31.2213   58.4339 H       1  <0>         0.0366
     31 H9          5.6859   31.5993   61.0982 H       1  <0>         0.0472
     32 H10         4.5033   32.1917   59.9329 H       1  <0>         0.0472
     33 H11         7.6432   26.8527   61.9053 H       1  <0>         0.0573
     34 H12         5.1732   26.0925   63.0224 H       1  <0>         0.0614
     35 H13         3.2707   26.4094   61.0779 H       1  <0>         0.0615
     36 H14         3.3998   28.8943   60.0941 H       1  <0>         0.0590
     37 H15         6.3573   28.2132   59.4745 H       1  <0>         0.0548
     38 H16         6.3258   33.2528   58.6390 H       1  <0>         0.0414
     39 H17         7.4736   34.9050   59.7405 H       1  <0>         0.1548
@<TRIPOS>BOND
     1     1     2   ar
     2     1     3   ar
     3     2    12   ar
     4     3    13   ar
     5     4    12   ar
     6     4    13   ar
     7     5     8    1
     8     5    14    1
     9     6    15    1
    10     6    16    1
    11     7    15    1
    12     7    19    1
    13     8     9    2
    14     9    10    1
    15    10    11    2
    16    11    14    1
    17    12    18    1
    18    13    22    1
    19    14    19    1
    20    15    17    1
    21    16    19   am
    22    16    20    2
    23    17    18   am
    24    17    21    2
    25     1    23    1
    26     2    24    1
    27     3    25    1
    28     4    26    1
    29     5    27    1
    30     5    28    1
    31     6    29    1
    32     6    30    1
    33     7    31    1
    34     7    32    1
    35     8    33    1
    36     9    34    1
    37    10    35    1
    38    11    36    1
    39    14    37    1
    40    15    38    1
    41    18    39    1
@<TRIPOS>SUBSTRUCTURE
     1 <0>         1 TEMP              0 ****  ****    0 ROOT

