
##########                                Name:          SM5_1_3D4Q
##########                    Molecular_Weight:             374.466
##########                DOCK_Rotatable_Bonds:                   5
##########                       Formal_Charge:              1.0004
##########                     HBond_Acceptors:                   6
##########                        HBond_Donors:                   4
##########                         Heavy_Atoms:                  28
##########                            HA_RMSDs:               7.727
##########                            HA_RMSDh:               6.505
##########                            HA_RMSDm:               4.739
##########                          Grid_Score:         -112.854477
##########                     Grid_vdw_energy:          -47.236202
##########                      Grid_es_energy:          -65.618279
##########           Internal_energy_repulsive:           21.936752

@<TRIPOS>MOLECULE
SM5_1_3D4Q
 52 56 1 0 0
SMALL
USER_CHARGES


@<TRIPOS>ATOM
      1 C1         84.6614   11.0805   -8.9936 C.ar    1  <0>        -0.0343
      2 C2         86.8502    9.9314   -8.8770 C.ar    1  <0>        -0.0343
      3 C3         85.4606   12.2560   -9.5755 C.ar    1  <0>         0.0282
      4 C4         87.4898   11.0920   -9.4253 C.ar    1  <0>         0.0282
      5 C5         84.2219    6.8243   -7.1587 C.2     1  <0>         0.0253
      6 C6         81.7605    5.8823   -6.0493 C.3     1  <0>         0.0081
      7 C7         80.6467    7.5553   -7.3096 C.3     1  <0>         0.0081
      8 C8         80.4954    4.9586   -5.9125 C.3     1  <0>        -0.0319
      9 C9         79.3670    6.6870   -7.3995 C.3     1  <0>        -0.0319
     10 C10        90.2884    8.0856   -5.4247 C.2     1  <0>        -0.0710
     11 C11        91.3304    6.7722   -5.5390 C.2     1  <0>        -0.0415
     12 C12        87.0652    6.1450   -7.6859 C.2     1  <0>        -0.0539
     13 C13        88.3179    5.5697   -7.4044 C.2     1  <0>        -0.0553
     14 C14        87.7942    8.2497   -6.4437 C.2     1  <0>        -0.0650
     15 C15        85.3754    9.9593   -8.6681 C.ar    1  <0>         0.0054
     16 C16        85.4126    7.8199   -7.5807 C.2     1  <0>         0.0248
     17 C17        84.7888    8.8902   -8.1756 C.2     1  <0>         0.0982
     18 C18        81.7149    6.7365   -7.3208 C.3     1  <0>         0.0553
     19 C19        89.0545    7.6181   -6.1765 C.3     1  <0>         0.0233
     20 C20        86.7497    7.4331   -7.2554 C.2     1  <0>        -0.0176
     21 C21        89.2665    6.2778   -6.6732 C.2     1  <0>        -0.0138
     22 C22        90.5290    5.7500   -6.3551 C.2     1  <0>         0.0560
     23 N1         86.8230   12.2395   -9.7775 N.ar    1  <0>        -0.2632
     24 N2         83.1307    8.6473   -8.1852 N.2     1  <0>        -0.1790
     25 N3         79.2738    5.7593   -6.1869 N.4     1  <0>         0.2271
     26 N4         90.8639    4.6336   -6.7398 N.pl3   1  <0>        -0.2287
     27 N5         83.0074    7.3935   -7.5500 N.pl3   1  <0>        -0.2270
     28 O1         91.5308    3.9361   -5.7140 O.3     1  <0>        -0.2974
     29 H1         83.5925   11.1358   -8.8491 H       1  <0>         0.0639
     30 H2         87.4263    9.0546   -8.6205 H       1  <0>         0.0639
     31 H3         84.9203   13.1520   -9.8430 H       1  <0>         0.0830
     32 H4         88.5596   11.0617   -9.5698 H       1  <0>         0.0830
     33 H5         84.3412    5.8753   -6.6571 H       1  <0>         0.0806
     34 H6         81.8021    6.5521   -5.1777 H       1  <0>         0.0336
     35 H7         82.6573    5.2464   -6.0855 H       1  <0>         0.0336
     36 H8         80.6932    8.2421   -8.1675 H       1  <0>         0.0336
     37 H9         80.6354    8.1422   -6.3793 H       1  <0>         0.0336
     38 H10        80.5636    4.1314   -6.6344 H       1  <0>         0.0814
     39 H11        80.4465    4.5498   -4.8925 H       1  <0>         0.0814
     40 H12        78.4845    7.3432   -7.4228 H       1  <0>         0.0814
     41 H13        79.4033    6.0817   -8.3173 H       1  <0>         0.0814
     42 H14        90.4559    9.0334   -4.9349 H       1  <0>         0.0582
     43 H15        92.3267    6.6717   -5.1343 H       1  <0>         0.0634
     44 H16        86.3351    5.5789   -8.2452 H       1  <0>         0.0624
     45 H17        88.5442    4.5744   -7.7574 H       1  <0>         0.0621
     46 H18        87.5803    9.2496   -6.0957 H       1  <0>         0.0587
     47 H19        81.5645    6.0935   -8.2004 H       1  <0>         0.0524
     48 H20        88.6097    8.6057   -5.9843 H       1  <0>         0.0435
     49 H21        78.5226    5.1200   -6.3511 H       1  <0>         0.2013
     50 H22        79.0964    6.3273   -5.3832 H       1  <0>         0.2013
     51 H23        90.0480    4.1210   -7.0072 H       1  <0>         0.1792
     52 H24        92.2654    3.4585   -6.0810 H       1  <0>         0.2413
@<TRIPOS>BOND
     1     1     3   ar
     2     1    15   ar
     3     2     4   ar
     4     2    15   ar
     5     3    23   ar
     6     4    23   ar
     7     5    16    2
     8     5    27    1
     9     6     8    1
    10     6    18    1
    11     7     9    1
    12     7    18    1
    13     8    25    1
    14     9    25    1
    15    10    11    2
    16    10    19    1
    17    11    22    1
    18    12    13    2
    19    12    20    1
    20    13    21    1
    21    14    19    1
    22    14    20    2
    23    15    17    1
    24    16    17    1
    25    16    20    1
    26    17    24    2
    27    18    27    1
    28    19    21    1
    29    21    22    2
    30    22    26    1
    31    24    27    1
    32    26    28    1
    33     1    29    1
    34     2    30    1
    35     3    31    1
    36     4    32    1
    37     5    33    1
    38     6    34    1
    39     6    35    1
    40     7    36    1
    41     7    37    1
    42     8    38    1
    43     8    39    1
    44     9    40    1
    45     9    41    1
    46    10    42    1
    47    11    43    1
    48    12    44    1
    49    13    45    1
    50    14    46    1
    51    18    47    1
    52    19    48    1
    53    25    49    1
    54    25    50    1
    55    26    51    1
    56    28    52    1
@<TRIPOS>SUBSTRUCTURE
     1 <0>         1 TEMP              0 ****  ****    0 ROOT

