
##########                                Name:          SM5_1_3D4Q
##########                    Molecular_Weight:             374.466
##########                DOCK_Rotatable_Bonds:                   5
##########                       Formal_Charge:              1.0004
##########                     HBond_Acceptors:                   6
##########                        HBond_Donors:                   4
##########                         Heavy_Atoms:                  28
##########                            HA_RMSDs:               7.772
##########                            HA_RMSDh:               6.555
##########                            HA_RMSDm:               4.775
##########                          Grid_Score:         -113.234062
##########                     Grid_vdw_energy:          -47.723900
##########                      Grid_es_energy:          -65.510162
##########           Internal_energy_repulsive:           17.234554

@<TRIPOS>MOLECULE
SM5_1_3D4Q
 52 56 1 0 0
SMALL
USER_CHARGES


@<TRIPOS>ATOM
      1 C1         84.7226   10.7255   -8.5030 C.ar    1  <0>        -0.0343
      2 C2         86.8834    9.5287   -8.6559 C.ar    1  <0>        -0.0343
      3 C3         85.4996   11.9242   -9.0675 C.ar    1  <0>         0.0282
      4 C4         87.5038   10.7131   -9.1744 C.ar    1  <0>         0.0282
      5 C5         84.3262    6.3857   -6.8801 C.2     1  <0>         0.0253
      6 C6         81.9179    5.2479   -5.9289 C.3     1  <0>         0.0081
      7 C7         80.7536    7.0429   -6.9536 C.3     1  <0>         0.0081
      8 C8         80.6633    4.3027   -5.8580 C.3     1  <0>        -0.0319
      9 C9         79.4767    6.1785   -7.1011 C.3     1  <0>        -0.0319
     10 C10        90.1995    7.5549   -4.7356 C.2     1  <0>        -0.0710
     11 C11        91.3420    6.3556   -5.0189 C.2     1  <0>        -0.0415
     12 C12        87.2771    5.8983   -7.5610 C.2     1  <0>        -0.0539
     13 C13        88.5495    5.3572   -7.3006 C.2     1  <0>        -0.0553
     14 C14        87.7680    7.7610   -5.8896 C.2     1  <0>        -0.0650
     15 C15        85.4327    9.5702   -8.3195 C.ar    1  <0>         0.0054
     16 C16        85.5004    7.4157   -7.2638 C.2     1  <0>         0.0248
     17 C17        84.8627    8.4800   -7.8546 C.2     1  <0>         0.0982
     18 C18        81.8256    6.2409   -7.0925 C.3     1  <0>         0.0553
     19 C19        89.0531    7.1681   -5.6533 C.3     1  <0>         0.0233
     20 C20        86.8400    7.0558   -6.9183 C.2     1  <0>        -0.0176
     21 C21        89.3952    5.9659   -6.3786 C.2     1  <0>        -0.0138
     22 C22        90.6715    5.4649   -6.0726 C.2     1  <0>         0.0560
     23 N1         86.8393   11.8958   -9.3866 N.ar    1  <0>        -0.2632
     24 N2         83.2114    8.1979   -7.9003 N.2     1  <0>        -0.1790
     25 N3         79.4287    5.1179   -5.9999 N.4     1  <0>         0.2271
     26 N4         91.1123    4.4677   -6.6364 N.pl3   1  <0>        -0.2287
     27 N5         83.1061    6.9318   -7.2865 N.pl3   1  <0>        -0.2270
     28 O1         92.2190    3.9512   -5.9351 O.3     1  <0>        -0.2974
     29 H1         83.6715   10.7911   -8.2636 H       1  <0>         0.0639
     30 H2         87.4565    8.6247   -8.5120 H       1  <0>         0.0639
     31 H3         84.9617   12.8475   -9.2240 H       1  <0>         0.0830
     32 H4         88.5566   10.6725   -9.4121 H       1  <0>         0.0830
     33 H5         84.4586    5.4322   -6.3906 H       1  <0>         0.0806
     34 H6         81.9844    5.8144   -4.9883 H       1  <0>         0.0336
     35 H7         82.8166    4.6287   -6.0662 H       1  <0>         0.0336
     36 H8         80.7680    7.8234   -7.7286 H       1  <0>         0.0336
     37 H9         80.7697    7.5199   -5.9626 H       1  <0>         0.0336
     38 H10        80.7124    3.5638   -6.6714 H       1  <0>         0.0814
     39 H11        80.6503    3.7800   -4.8903 H       1  <0>         0.0814
     40 H12        78.5901    6.8247   -7.0210 H       1  <0>         0.0814
     41 H13        79.4862    5.6821   -8.0826 H       1  <0>         0.0814
     42 H14        90.2648    8.3974   -4.0631 H       1  <0>         0.0582
     43 H15        92.3160    6.2395   -4.5669 H       1  <0>         0.0634
     44 H16        86.6275    5.4084   -8.2712 H       1  <0>         0.0624
     45 H17        88.8711    4.4657   -7.8185 H       1  <0>         0.0621
     46 H18        87.4587    8.6587   -5.3749 H       1  <0>         0.0587
     47 H19        81.6499    5.7009   -8.0345 H       1  <0>         0.0524
     48 H20        88.5246    8.0700   -5.3108 H       1  <0>         0.0435
     49 H21        78.6762    4.4944   -6.2119 H       1  <0>         0.2013
     50 H22        79.2747    5.5890   -5.1314 H       1  <0>         0.2013
     51 H23        90.3961    3.7709   -6.6767 H       1  <0>         0.1792
     52 H24        92.5950    3.2286   -6.4239 H       1  <0>         0.2413
@<TRIPOS>BOND
     1     1     3   ar
     2     1    15   ar
     3     2     4   ar
     4     2    15   ar
     5     3    23   ar
     6     4    23   ar
     7     5    16    2
     8     5    27    1
     9     6     8    1
    10     6    18    1
    11     7     9    1
    12     7    18    1
    13     8    25    1
    14     9    25    1
    15    10    11    2
    16    10    19    1
    17    11    22    1
    18    12    13    2
    19    12    20    1
    20    13    21    1
    21    14    19    1
    22    14    20    2
    23    15    17    1
    24    16    17    1
    25    16    20    1
    26    17    24    2
    27    18    27    1
    28    19    21    1
    29    21    22    2
    30    22    26    1
    31    24    27    1
    32    26    28    1
    33     1    29    1
    34     2    30    1
    35     3    31    1
    36     4    32    1
    37     5    33    1
    38     6    34    1
    39     6    35    1
    40     7    36    1
    41     7    37    1
    42     8    38    1
    43     8    39    1
    44     9    40    1
    45     9    41    1
    46    10    42    1
    47    11    43    1
    48    12    44    1
    49    13    45    1
    50    14    46    1
    51    18    47    1
    52    19    48    1
    53    25    49    1
    54    25    50    1
    55    26    51    1
    56    28    52    1
@<TRIPOS>SUBSTRUCTURE
     1 <0>         1 TEMP              0 ****  ****    0 ROOT

