
##########                                Name:          SM5_1_3D4Q
##########                    Molecular_Weight:             374.466
##########                DOCK_Rotatable_Bonds:                   5
##########                       Formal_Charge:              1.0004
##########                     HBond_Acceptors:                   6
##########                        HBond_Donors:                   4
##########                         Heavy_Atoms:                  28
##########                            HA_RMSDs:               7.741
##########                            HA_RMSDh:               6.521
##########                            HA_RMSDm:               4.749
##########                          Grid_Score:         -107.564537
##########                     Grid_vdw_energy:          -42.663445
##########                      Grid_es_energy:          -64.901093
##########           Internal_energy_repulsive:           14.587968

@<TRIPOS>MOLECULE
SM5_1_3D4Q
 52 56 1 0 0
SMALL
USER_CHARGES


@<TRIPOS>ATOM
      1 C1         84.8546   10.7891   -8.2578 C.ar    1  <0>        -0.0343
      2 C2         86.8410    9.4826   -8.9449 C.ar    1  <0>        -0.0343
      3 C3         85.6263   11.9982   -8.8072 C.ar    1  <0>         0.0282
      4 C4         87.4657   10.6819   -9.4225 C.ar    1  <0>         0.0282
      5 C5         84.3535    6.3553   -7.0044 C.2     1  <0>         0.0253
      6 C6         81.9334    5.1781   -6.1425 C.3     1  <0>         0.0081
      7 C7         80.7825    7.0023   -7.1301 C.3     1  <0>         0.0081
      8 C8         80.6802    4.2287   -6.1232 C.3     1  <0>        -0.0319
      9 C9         79.5105    6.1405   -7.3268 C.3     1  <0>        -0.0319
     10 C10        90.3640    7.7892   -5.1043 C.2     1  <0>        -0.0710
     11 C11        91.4158    6.4791   -5.1417 C.2     1  <0>        -0.0415
     12 C12        87.1963    5.7308   -7.3396 C.2     1  <0>        -0.0539
     13 C13        88.4468    5.1766   -7.0098 C.2     1  <0>        -0.0553
     14 C14        87.8888    7.8922   -6.1764 C.2     1  <0>        -0.0650
     15 C15        85.4797    9.5750   -8.3467 C.ar    1  <0>         0.0054
     16 C16        85.5321    7.3974   -7.3386 C.2     1  <0>         0.0248
     17 C17        84.9036    8.4727   -7.9193 C.2     1  <0>         0.0982
     18 C18        81.8588    6.2072   -7.2755 C.3     1  <0>         0.0553
     19 C19        89.1475    7.2813   -5.8582 C.3     1  <0>         0.0233
     20 C20        86.8650    7.0341   -6.9716 C.2     1  <0>        -0.0176
     21 C21        89.3769    5.9221   -6.2922 C.2     1  <0>        -0.0138
     22 C22        90.6362    5.4172   -5.9276 C.2     1  <0>         0.0560
     23 N1         86.8827   11.9238   -9.3668 N.ar    1  <0>        -0.2632
     24 N2         83.2548    8.1864   -8.0080 N.2     1  <0>        -0.1790
     25 N3         79.4462    5.0455   -6.2607 N.4     1  <0>         0.2271
     26 N4         90.9851    4.2874   -6.2571 N.pl3   1  <0>        -0.2287
     27 N5         83.1406    6.9065   -7.4254 N.pl3   1  <0>        -0.2270
     28 O1         91.9861    3.8063   -5.3911 O.3     1  <0>        -0.2974
     29 H1         83.8707   10.8917   -7.8243 H       1  <0>         0.0639
     30 H2         87.3474    8.5314   -9.0173 H       1  <0>         0.0639
     31 H3         85.1539   12.9678   -8.7513 H       1  <0>         0.0830
     32 H4         88.4537   10.6036   -9.8517 H       1  <0>         0.0830
     33 H5         84.4786    5.3913   -6.5337 H       1  <0>         0.0806
     34 H6         81.9822    5.7147   -5.1835 H       1  <0>         0.0336
     35 H7         82.8360    4.5654   -6.2837 H       1  <0>         0.0336
     36 H8         80.8083    7.8070   -7.8797 H       1  <0>         0.0336
     37 H9         80.7802    7.4478   -6.1244 H       1  <0>         0.0336
     38 H10        80.7452    3.5160   -6.9585 H       1  <0>         0.0814
     39 H11        80.6518    3.6756   -5.1729 H       1  <0>         0.0814
     40 H12        78.6211    6.7821   -7.2418 H       1  <0>         0.0814
     41 H13        79.5382    5.6753   -8.3233 H       1  <0>         0.0814
     42 H14        90.5164    8.7584   -4.6530 H       1  <0>         0.0582
     43 H15        92.4047    6.4030   -4.7143 H       1  <0>         0.0634
     44 H16        86.4804    5.1361   -7.8875 H       1  <0>         0.0624
     45 H17        88.6857    4.1685   -7.3148 H       1  <0>         0.0621
     46 H18        87.6624    8.9047   -5.8764 H       1  <0>         0.0587
     47 H19        81.7008    5.6969   -8.2370 H       1  <0>         0.0524
     48 H20        88.6933    8.2732   -5.7176 H       1  <0>         0.0435
     49 H21        78.6991    4.4275   -6.5053 H       1  <0>         0.2013
     50 H22        79.2760    5.4886   -5.3805 H       1  <0>         0.2013
     51 H23        90.1950    3.6758   -6.2159 H       1  <0>         0.1792
     52 H24        92.4810    3.1228   -5.8273 H       1  <0>         0.2413
@<TRIPOS>BOND
     1     1     3   ar
     2     1    15   ar
     3     2     4   ar
     4     2    15   ar
     5     3    23   ar
     6     4    23   ar
     7     5    16    2
     8     5    27    1
     9     6     8    1
    10     6    18    1
    11     7     9    1
    12     7    18    1
    13     8    25    1
    14     9    25    1
    15    10    11    2
    16    10    19    1
    17    11    22    1
    18    12    13    2
    19    12    20    1
    20    13    21    1
    21    14    19    1
    22    14    20    2
    23    15    17    1
    24    16    17    1
    25    16    20    1
    26    17    24    2
    27    18    27    1
    28    19    21    1
    29    21    22    2
    30    22    26    1
    31    24    27    1
    32    26    28    1
    33     1    29    1
    34     2    30    1
    35     3    31    1
    36     4    32    1
    37     5    33    1
    38     6    34    1
    39     6    35    1
    40     7    36    1
    41     7    37    1
    42     8    38    1
    43     8    39    1
    44     9    40    1
    45     9    41    1
    46    10    42    1
    47    11    43    1
    48    12    44    1
    49    13    45    1
    50    14    46    1
    51    18    47    1
    52    19    48    1
    53    25    49    1
    54    25    50    1
    55    26    51    1
    56    28    52    1
@<TRIPOS>SUBSTRUCTURE
     1 <0>         1 TEMP              0 ****  ****    0 ROOT

