
##########                                Name:          SM5_1_3D4Q
##########                    Molecular_Weight:             374.466
##########                DOCK_Rotatable_Bonds:                   5
##########                       Formal_Charge:              1.0004
##########                     HBond_Acceptors:                   6
##########                        HBond_Donors:                   4
##########                         Heavy_Atoms:                  28
##########                            HA_RMSDs:              10.481
##########                            HA_RMSDh:               9.423
##########                            HA_RMSDm:               7.758
##########                          Grid_Score:         -110.638779
##########                     Grid_vdw_energy:          -39.645905
##########                      Grid_es_energy:          -70.992874
##########           Internal_energy_repulsive:           18.142929

@<TRIPOS>MOLECULE
SM5_1_3D4Q
 52 56 1 0 0
SMALL
USER_CHARGES


@<TRIPOS>ATOM
      1 C1         88.2691    7.5987   -8.7222 C.ar    1  <0>        -0.0343
      2 C2         89.4279    9.7801   -8.5686 C.ar    1  <0>        -0.0343
      3 C3         89.6705    6.9938   -8.5505 C.ar    1  <0>         0.0282
      4 C4         90.6835    9.1036   -8.4184 C.ar    1  <0>         0.0282
      5 C5         85.2318   11.0193   -9.4020 C.2     1  <0>         0.0253
      6 C6         82.4427   10.8882   -9.1127 C.3     1  <0>         0.0081
      7 C7         82.7395    8.8365   -7.9593 C.3     1  <0>         0.0081
      8 C8         80.9847   11.1295   -8.5758 C.3     1  <0>        -0.0319
      9 C9         81.3872    9.0120   -7.2245 C.3     1  <0>        -0.0319
     10 C10        90.4565   12.2203  -13.1835 C.2     1  <0>        -0.0710
     11 C11        90.4374   13.7853  -13.7952 C.2     1  <0>        -0.0415
     12 C12        87.0164   12.8619  -10.5334 C.2     1  <0>        -0.0539
     13 C13        87.5806   13.8346  -11.3792 C.2     1  <0>        -0.0553
     14 C14        88.7647   11.1932  -11.3478 C.2     1  <0>        -0.0650
     15 C15        88.1904    8.9649   -8.7217 C.ar    1  <0>         0.0054
     16 C16        86.7971   10.7094   -9.6030 C.2     1  <0>         0.0248
     17 C17        87.0384    9.5867   -8.8481 C.2     1  <0>         0.0982
     18 C18        83.2836   10.0542   -8.1402 C.3     1  <0>         0.0553
     19 C19        89.3007   12.2170  -12.1983 C.3     1  <0>         0.0233
     20 C20        87.5403   11.5715  -10.4678 C.2     1  <0>        -0.0176
     21 C21        88.6720   13.5181  -12.1819 C.2     1  <0>        -0.0138
     22 C22        89.2696   14.4458  -13.0513 C.2     1  <0>         0.0560
     23 N1         90.8205    7.7374   -8.4031 N.ar    1  <0>        -0.2632
     24 N2         85.6255    9.0971   -8.0915 N.2     1  <0>        -0.1790
     25 N3         80.4284    9.8445   -8.0775 N.4     1  <0>         0.2271
     26 N4         88.8640   15.6023  -13.1194 N.pl3   1  <0>        -0.2287
     27 N5         84.6955   10.0579   -8.5418 N.pl3   1  <0>        -0.2270
     28 O1         89.4708   16.2769  -14.1965 O.3     1  <0>        -0.2974
     29 H1         87.3923    6.9786   -8.8372 H       1  <0>         0.0639
     30 H2         89.3805   10.8590   -8.5707 H       1  <0>         0.0639
     31 H3         89.7598    5.9175   -8.5449 H       1  <0>         0.0830
     32 H4         91.5744    9.7044   -8.3110 H       1  <0>         0.0830
     33 H5         84.6868   11.8339   -9.8558 H       1  <0>         0.0806
     34 H6         82.3797   10.3521  -10.0712 H       1  <0>         0.0336
     35 H7         82.9315   11.8637   -9.2520 H       1  <0>         0.0336
     36 H8         83.4142    8.2115   -7.3559 H       1  <0>         0.0336
     37 H9         82.5755    8.3521   -8.9332 H       1  <0>         0.0336
     38 H10        81.0107   11.8623   -7.7558 H       1  <0>         0.0814
     39 H11        80.3517   11.5141   -9.3890 H       1  <0>         0.0814
     40 H12        80.9431    8.0225   -7.0409 H       1  <0>         0.0814
     41 H13        81.5588    9.5248   -6.2666 H       1  <0>         0.0814
     42 H14        91.1284   11.4120  -13.4311 H       1  <0>         0.0582
     43 H15        91.0913   14.2220  -14.5356 H       1  <0>         0.0634
     44 H16        86.1625   13.1194   -9.9244 H       1  <0>         0.0624
     45 H17        87.1647   14.8310  -11.4055 H       1  <0>         0.0621
     46 H18        89.1935   10.2023  -11.3201 H       1  <0>         0.0587
     47 H19        83.2722   10.5160   -7.1420 H       1  <0>         0.0524
     48 H20        89.5626   11.1772  -11.9528 H       1  <0>         0.0435
     49 H21        79.6293   10.0575   -7.5154 H       1  <0>         0.2013
     50 H22        80.1750    9.2946   -8.8734 H       1  <0>         0.2013
     51 H23        87.8732   15.5942  -13.2546 H       1  <0>         0.1792
     52 H24        89.0180   17.0974  -14.3522 H       1  <0>         0.2413
@<TRIPOS>BOND
     1     1     3   ar
     2     1    15   ar
     3     2     4   ar
     4     2    15   ar
     5     3    23   ar
     6     4    23   ar
     7     5    16    2
     8     5    27    1
     9     6     8    1
    10     6    18    1
    11     7     9    1
    12     7    18    1
    13     8    25    1
    14     9    25    1
    15    10    11    2
    16    10    19    1
    17    11    22    1
    18    12    13    2
    19    12    20    1
    20    13    21    1
    21    14    19    1
    22    14    20    2
    23    15    17    1
    24    16    17    1
    25    16    20    1
    26    17    24    2
    27    18    27    1
    28    19    21    1
    29    21    22    2
    30    22    26    1
    31    24    27    1
    32    26    28    1
    33     1    29    1
    34     2    30    1
    35     3    31    1
    36     4    32    1
    37     5    33    1
    38     6    34    1
    39     6    35    1
    40     7    36    1
    41     7    37    1
    42     8    38    1
    43     8    39    1
    44     9    40    1
    45     9    41    1
    46    10    42    1
    47    11    43    1
    48    12    44    1
    49    13    45    1
    50    14    46    1
    51    18    47    1
    52    19    48    1
    53    25    49    1
    54    25    50    1
    55    26    51    1
    56    28    52    1
@<TRIPOS>SUBSTRUCTURE
     1 <0>         1 TEMP              0 ****  ****    0 ROOT

