
##########                                Name:          SM5_1_3D4Q
##########                    Molecular_Weight:             374.466
##########                DOCK_Rotatable_Bonds:                   5
##########                       Formal_Charge:              1.0004
##########                     HBond_Acceptors:                   6
##########                        HBond_Donors:                   4
##########                         Heavy_Atoms:                  28
##########                            HA_RMSDs:               7.803
##########                            HA_RMSDh:               6.615
##########                            HA_RMSDm:               4.853
##########                          Grid_Score:         -112.653183
##########                     Grid_vdw_energy:          -46.706078
##########                      Grid_es_energy:          -65.947105
##########           Internal_energy_repulsive:           21.503656

@<TRIPOS>MOLECULE
SM5_1_3D4Q
 52 56 1 0 0
SMALL
USER_CHARGES


@<TRIPOS>ATOM
      1 C1         84.9194   10.9502   -9.0488 C.ar    1  <0>        -0.0343
      2 C2         87.0866    9.7734   -8.8407 C.ar    1  <0>        -0.0343
      3 C3         85.7511   12.0951   -9.6462 C.ar    1  <0>         0.0282
      4 C4         87.7576   10.9067   -9.4083 C.ar    1  <0>         0.0282
      5 C5         84.3690    6.7572   -7.1009 C.2     1  <0>         0.0253
      6 C6         81.8834    5.8665   -6.0215 C.3     1  <0>         0.0081
      7 C7         80.8150    7.5604   -7.2930 C.3     1  <0>         0.0081
      8 C8         80.5960    4.9740   -5.8858 C.3     1  <0>        -0.0319
      9 C9         79.5152    6.7227   -7.3844 C.3     1  <0>        -0.0319
     10 C10        90.3828    7.8682   -5.1941 C.2     1  <0>        -0.0710
     11 C11        91.4263    6.5583   -5.3324 C.2     1  <0>        -0.0415
     12 C12        87.2386    6.0443   -7.6548 C.2     1  <0>        -0.0539
     13 C13        88.4798    5.4527   -7.3564 C.2     1  <0>        -0.0553
     14 C14        87.9263    8.0870   -6.2914 C.2     1  <0>        -0.0650
     15 C15        85.6076    9.8295   -8.6705 C.ar    1  <0>         0.0054
     16 C16        85.5857    7.7176   -7.5302 C.2     1  <0>         0.0248
     17 C17        84.9924    8.7851   -8.1602 C.2     1  <0>         0.0982
     18 C18        81.8633    6.7161   -7.2966 C.3     1  <0>         0.0553
     19 C19        89.1755    7.4398   -6.0096 C.3     1  <0>         0.0233
     20 C20        86.9100    7.3121   -7.1764 C.2     1  <0>        -0.0176
     21 C21        89.4029    6.1232   -6.5602 C.2     1  <0>        -0.0138
     22 C22        90.6527    5.5775   -6.2227 C.2     1  <0>         0.0560
     23 N1         87.1177   12.0522   -9.8128 N.ar    1  <0>        -0.2632
     24 N2         83.3299    8.5757   -8.1876 N.2     1  <0>        -0.1790
     25 N3         79.3950    5.8026   -6.1683 N.4     1  <0>         0.2271
     26 N4         90.9994    4.4790   -6.6467 N.pl3   1  <0>        -0.2287
     27 N5         83.1720    7.3408   -7.5234 N.pl3   1  <0>        -0.2270
     28 O1         92.1271    4.0110   -5.9449 O.3     1  <0>        -0.2974
     29 H1         83.8482   11.0258   -8.9334 H       1  <0>         0.0639
     30 H2         87.6424    8.8967   -8.5425 H       1  <0>         0.0639
     31 H3         85.2316   12.9901   -9.9551 H       1  <0>         0.0830
     32 H4         88.8301   10.8561   -9.5244 H       1  <0>         0.0830
     33 H5         84.4618    5.8188   -6.5744 H       1  <0>         0.0806
     34 H6         81.9378    6.5387   -5.1524 H       1  <0>         0.0336
     35 H7         82.7648    5.2090   -6.0515 H       1  <0>         0.0336
     36 H8         80.8814    8.2423   -8.1536 H       1  <0>         0.0336
     37 H9         80.8143    8.1513   -6.3653 H       1  <0>         0.0336
     38 H10        80.6470    4.1424   -6.6040 H       1  <0>         0.0814
     39 H11        80.5333    4.5708   -4.8644 H       1  <0>         0.0814
     40 H12        78.6488    7.3998   -7.4139 H       1  <0>         0.0814
     41 H13        79.5404    6.1129   -8.2995 H       1  <0>         0.0814
     42 H14        90.5343    8.7918   -4.6553 H       1  <0>         0.0582
     43 H15        92.4076    6.4362   -4.8981 H       1  <0>         0.0634
     44 H16        86.5278    5.5069   -8.2650 H       1  <0>         0.0624
     45 H17        88.7169    4.4741   -7.7469 H       1  <0>         0.0621
     46 H18        87.7017    9.0704   -5.9053 H       1  <0>         0.0587
     47 H19        81.7008    6.0732   -8.1742 H       1  <0>         0.0524
     48 H20        88.7257    8.4188   -5.7877 H       1  <0>         0.0435
     49 H21        78.6293    5.1809   -6.3329 H       1  <0>         0.2013
     50 H22        79.2283    6.3782   -5.3677 H       1  <0>         0.2013
     51 H23        90.2477    3.8302   -6.5283 H       1  <0>         0.1792
     52 H24        92.2404    3.0823   -6.1099 H       1  <0>         0.2413
@<TRIPOS>BOND
     1     1     3   ar
     2     1    15   ar
     3     2     4   ar
     4     2    15   ar
     5     3    23   ar
     6     4    23   ar
     7     5    16    2
     8     5    27    1
     9     6     8    1
    10     6    18    1
    11     7     9    1
    12     7    18    1
    13     8    25    1
    14     9    25    1
    15    10    11    2
    16    10    19    1
    17    11    22    1
    18    12    13    2
    19    12    20    1
    20    13    21    1
    21    14    19    1
    22    14    20    2
    23    15    17    1
    24    16    17    1
    25    16    20    1
    26    17    24    2
    27    18    27    1
    28    19    21    1
    29    21    22    2
    30    22    26    1
    31    24    27    1
    32    26    28    1
    33     1    29    1
    34     2    30    1
    35     3    31    1
    36     4    32    1
    37     5    33    1
    38     6    34    1
    39     6    35    1
    40     7    36    1
    41     7    37    1
    42     8    38    1
    43     8    39    1
    44     9    40    1
    45     9    41    1
    46    10    42    1
    47    11    43    1
    48    12    44    1
    49    13    45    1
    50    14    46    1
    51    18    47    1
    52    19    48    1
    53    25    49    1
    54    25    50    1
    55    26    51    1
    56    28    52    1
@<TRIPOS>SUBSTRUCTURE
     1 <0>         1 TEMP              0 ****  ****    0 ROOT

