
##########                                Name:          SM5_1_3D4Q
##########                    Molecular_Weight:             374.466
##########                DOCK_Rotatable_Bonds:                   5
##########                       Formal_Charge:              1.0004
##########                     HBond_Acceptors:                   6
##########                        HBond_Donors:                   4
##########                         Heavy_Atoms:                  28
##########                            HA_RMSDs:               7.788
##########                            HA_RMSDh:               6.570
##########                            HA_RMSDm:               4.772
##########                          Grid_Score:         -111.529938
##########                     Grid_vdw_energy:          -45.795193
##########                      Grid_es_energy:          -65.734741
##########           Internal_energy_repulsive:           16.470354

@<TRIPOS>MOLECULE
SM5_1_3D4Q
 52 56 1 0 0
SMALL
USER_CHARGES


@<TRIPOS>ATOM
      1 C1         84.5093   10.8184   -8.4380 C.ar    1  <0>        -0.0343
      2 C2         86.7408    9.7512   -8.3583 C.ar    1  <0>        -0.0343
      3 C3         85.2718   12.0682   -8.9024 C.ar    1  <0>         0.0282
      4 C4         87.3437   10.9771   -8.7947 C.ar    1  <0>         0.0282
      5 C5         84.2084    6.4060   -6.9803 C.2     1  <0>         0.0253
      6 C6         81.5184    5.8240   -5.6857 C.3     1  <0>         0.0081
      7 C7         80.6144    6.9114   -7.5905 C.3     1  <0>         0.0081
      8 C8         80.3090    4.8336   -5.5151 C.3     1  <0>        -0.0319
      9 C9         79.4375    5.9061   -7.6511 C.3     1  <0>        -0.0319
     10 C10        90.1398    7.4702   -4.9176 C.2     1  <0>        -0.0710
     11 C11        91.2743    6.2933   -5.3071 C.2     1  <0>        -0.0415
     12 C12        87.1355    5.9802   -7.7500 C.2     1  <0>        -0.0539
     13 C13        88.4156    5.4277   -7.5609 C.2     1  <0>        -0.0553
     14 C14        87.6746    7.7394   -5.9840 C.2     1  <0>        -0.0650
     15 C15        85.2618    9.7036   -8.1857 C.ar    1  <0>         0.0054
     16 C16        85.3672    7.4719   -7.3084 C.2     1  <0>         0.0248
     17 C17        84.7093    8.5755   -7.7962 C.2     1  <0>         0.0982
     18 C18        81.7041    6.2603   -7.1429 C.3     1  <0>         0.0553
     19 C19        88.9667    7.1367   -5.8225 C.3     1  <0>         0.0233
     20 C20        86.7169    7.0954   -7.0254 C.2     1  <0>        -0.0176
     21 C21        89.2880    5.9816   -6.6293 C.2     1  <0>        -0.0138
     22 C22        90.5733    5.4664   -6.3925 C.2     1  <0>         0.0560
     23 N1         86.6379   12.1222   -9.0702 N.ar    1  <0>        -0.2632
     24 N2         83.0589    8.2858   -7.8243 N.2     1  <0>        -0.1790
     25 N3         79.1336    5.3660   -6.2525 N.4     1  <0>         0.2271
     26 N4         90.9979    4.5064   -7.0287 N.pl3   1  <0>        -0.2287
     27 N5         82.9757    6.9739   -7.3118 N.pl3   1  <0>        -0.2270
     28 O1         92.4043    4.5393   -7.0946 O.3     1  <0>        -0.2974
     29 H1         83.4361   10.8193   -8.3169 H       1  <0>         0.0639
     30 H2         87.3470    8.8799   -8.1587 H       1  <0>         0.0639
     31 H3         84.7008   12.9610   -9.1106 H       1  <0>         0.0830
     32 H4         88.4168   11.0011   -8.9137 H       1  <0>         0.0830
     33 H5         84.3580    5.4173   -6.5722 H       1  <0>         0.0806
     34 H6         81.3294    6.7178   -5.0730 H       1  <0>         0.0336
     35 H7         82.4361    5.3184   -5.3509 H       1  <0>         0.0336
     36 H8         80.8088    7.3200   -8.5931 H       1  <0>         0.0336
     37 H9         80.3658    7.7371   -6.9077 H       1  <0>         0.0336
     38 H10        80.5811    3.8471   -5.9187 H       1  <0>         0.0814
     39 H11        80.0610    4.7356   -4.4480 H       1  <0>         0.0814
     40 H12        78.5455    6.4153   -8.0449 H       1  <0>         0.0814
     41 H13        79.7088    5.0695   -8.3118 H       1  <0>         0.0814
     42 H14        90.2244    8.2706   -4.1975 H       1  <0>         0.0582
     43 H15        92.2614    6.1527   -4.8922 H       1  <0>         0.0634
     44 H16        86.4654    5.5325   -8.4689 H       1  <0>         0.0624
     45 H17        88.7224    4.5700   -8.1413 H       1  <0>         0.0621
     46 H18        87.3801    8.6034   -5.4067 H       1  <0>         0.0587
     47 H19        81.7874    5.3764   -7.7923 H       1  <0>         0.0524
     48 H20        88.4479    8.0147   -5.4103 H       1  <0>         0.0435
     49 H21        78.4746    4.6206   -6.3518 H       1  <0>         0.2013
     50 H22        78.7521    6.1171   -5.7136 H       1  <0>         0.2013
     51 H23        90.7111    3.6616   -6.5769 H       1  <0>         0.1792
     52 H24        92.6929    4.1445   -7.9090 H       1  <0>         0.2413
@<TRIPOS>BOND
     1     1     3   ar
     2     1    15   ar
     3     2     4   ar
     4     2    15   ar
     5     3    23   ar
     6     4    23   ar
     7     5    16    2
     8     5    27    1
     9     6     8    1
    10     6    18    1
    11     7     9    1
    12     7    18    1
    13     8    25    1
    14     9    25    1
    15    10    11    2
    16    10    19    1
    17    11    22    1
    18    12    13    2
    19    12    20    1
    20    13    21    1
    21    14    19    1
    22    14    20    2
    23    15    17    1
    24    16    17    1
    25    16    20    1
    26    17    24    2
    27    18    27    1
    28    19    21    1
    29    21    22    2
    30    22    26    1
    31    24    27    1
    32    26    28    1
    33     1    29    1
    34     2    30    1
    35     3    31    1
    36     4    32    1
    37     5    33    1
    38     6    34    1
    39     6    35    1
    40     7    36    1
    41     7    37    1
    42     8    38    1
    43     8    39    1
    44     9    40    1
    45     9    41    1
    46    10    42    1
    47    11    43    1
    48    12    44    1
    49    13    45    1
    50    14    46    1
    51    18    47    1
    52    19    48    1
    53    25    49    1
    54    25    50    1
    55    26    51    1
    56    28    52    1
@<TRIPOS>SUBSTRUCTURE
     1 <0>         1 TEMP              0 ****  ****    0 ROOT

