
##########                                Name:          SM5_1_3D4Q
##########                    Molecular_Weight:             374.466
##########                DOCK_Rotatable_Bonds:                   5
##########                       Formal_Charge:              1.0004
##########                     HBond_Acceptors:                   6
##########                        HBond_Donors:                   4
##########                         Heavy_Atoms:                  28
##########                            HA_RMSDs:               7.860
##########                            HA_RMSDh:               6.635
##########                            HA_RMSDm:               4.869
##########                          Grid_Score:         -111.418991
##########                     Grid_vdw_energy:          -45.976326
##########                      Grid_es_energy:          -65.442665
##########           Internal_energy_repulsive:           14.513476

@<TRIPOS>MOLECULE
SM5_1_3D4Q
 52 56 1 0 0
SMALL
USER_CHARGES


@<TRIPOS>ATOM
      1 C1         84.7360   11.0664   -8.7648 C.ar    1  <0>        -0.0343
      2 C2         86.8676    9.8508   -9.0866 C.ar    1  <0>        -0.0343
      3 C3         85.4801   12.2617   -9.3785 C.ar    1  <0>         0.0282
      4 C4         87.4589   11.0331   -9.6428 C.ar    1  <0>         0.0282
      5 C5         84.4196    6.7239   -7.1344 C.2     1  <0>         0.0253
      6 C6         81.9417    5.9138   -5.8220 C.3     1  <0>         0.0081
      7 C7         80.8049    7.3390   -7.3399 C.3     1  <0>         0.0081
      8 C8         80.7174    4.9511   -5.6057 C.3     1  <0>        -0.0319
      9 C9         79.5733    6.3997   -7.3563 C.3     1  <0>        -0.0319
     10 C10        90.4439    7.9499   -5.4172 C.2     1  <0>        -0.0710
     11 C11        91.5480    6.7189   -5.7161 C.2     1  <0>        -0.0415
     12 C12        87.3033    6.1910   -7.9293 C.2     1  <0>        -0.0539
     13 C13        88.5846    5.6443   -7.7322 C.2     1  <0>        -0.0553
     14 C14        87.9374    8.1328   -6.4023 C.2     1  <0>        -0.0650
     15 C15        85.4466    9.9033   -8.6422 C.ar    1  <0>         0.0054
     16 C16        85.5715    7.7505   -7.5882 C.2     1  <0>         0.0248
     17 C17        84.9025    8.8152   -8.1427 C.2     1  <0>         0.0982
     18 C18        81.9105    6.5843   -7.1996 C.3     1  <0>         0.0553
     19 C19        89.2289    7.5328   -6.2272 C.3     1  <0>         0.0233
     20 C20        86.9283    7.3883   -7.3211 C.2     1  <0>        -0.0176
     21 C21        89.5026    6.2881   -6.9084 C.2     1  <0>        -0.0138
     22 C22        90.7917    5.7838   -6.6683 C.2     1  <0>         0.0560
     23 N1         86.7918   12.2232   -9.7973 N.ar    1  <0>        -0.2632
     24 N2         83.2508    8.5367   -8.0909 N.2     1  <0>        -0.1790
     25 N3         79.4719    5.6410   -6.0319 N.4     1  <0>         0.2271
     26 N4         91.1780    4.7507   -7.2070 N.pl3   1  <0>        -0.2287
     27 N5         83.1789    7.2720   -7.4696 N.pl3   1  <0>        -0.2270
     28 O1         92.5254    4.4982   -6.8840 O.3     1  <0>        -0.2974
     29 H1         83.7064   11.1399   -8.4469 H       1  <0>         0.0639
     30 H2         87.4411    8.9406   -8.9917 H       1  <0>         0.0639
     31 H3         84.9410   13.1910   -9.4886 H       1  <0>         0.0830
     32 H4         88.4904   10.9845   -9.9590 H       1  <0>         0.0830
     33 H5         84.5784    5.7710   -6.6516 H       1  <0>         0.0806
     34 H6         81.9134    6.6966   -5.0497 H       1  <0>         0.0336
     35 H7         82.8685    5.3274   -5.7377 H       1  <0>         0.0336
     36 H8         80.8559    7.9049   -8.2819 H       1  <0>         0.0336
     37 H9         80.7253    8.0450   -6.5002 H       1  <0>         0.0336
     38 H10        80.8562    4.0386   -6.2041 H       1  <0>         0.0814
     39 H11        80.6439    4.6821   -4.5417 H       1  <0>         0.0814
     40 H12        78.6623    6.9987   -7.5017 H       1  <0>         0.0814
     41 H13        79.6782    5.6785   -8.1802 H       1  <0>         0.0814
     42 H14        90.5683    8.8262   -4.7984 H       1  <0>         0.0582
     43 H15        92.5509    6.6117   -5.3299 H       1  <0>         0.0634
     44 H16        86.5977    5.6741   -8.5628 H       1  <0>         0.0624
     45 H17        88.8567    4.7212   -8.2223 H       1  <0>         0.0621
     46 H18        87.6773    9.0617   -5.9165 H       1  <0>         0.0587
     47 H19        81.8293    5.8210   -7.9874 H       1  <0>         0.0524
     48 H20        88.7378    8.4602   -5.8974 H       1  <0>         0.0435
     49 H21        78.7600    4.9463   -6.1340 H       1  <0>         0.2013
     50 H22        79.2330    6.3025   -5.3209 H       1  <0>         0.2013
     51 H23        90.6166    3.9864   -6.8897 H       1  <0>         0.1792
     52 H24        92.8675    3.8223   -7.4572 H       1  <0>         0.2413
@<TRIPOS>BOND
     1     1     3   ar
     2     1    15   ar
     3     2     4   ar
     4     2    15   ar
     5     3    23   ar
     6     4    23   ar
     7     5    16    2
     8     5    27    1
     9     6     8    1
    10     6    18    1
    11     7     9    1
    12     7    18    1
    13     8    25    1
    14     9    25    1
    15    10    11    2
    16    10    19    1
    17    11    22    1
    18    12    13    2
    19    12    20    1
    20    13    21    1
    21    14    19    1
    22    14    20    2
    23    15    17    1
    24    16    17    1
    25    16    20    1
    26    17    24    2
    27    18    27    1
    28    19    21    1
    29    21    22    2
    30    22    26    1
    31    24    27    1
    32    26    28    1
    33     1    29    1
    34     2    30    1
    35     3    31    1
    36     4    32    1
    37     5    33    1
    38     6    34    1
    39     6    35    1
    40     7    36    1
    41     7    37    1
    42     8    38    1
    43     8    39    1
    44     9    40    1
    45     9    41    1
    46    10    42    1
    47    11    43    1
    48    12    44    1
    49    13    45    1
    50    14    46    1
    51    18    47    1
    52    19    48    1
    53    25    49    1
    54    25    50    1
    55    26    51    1
    56    28    52    1
@<TRIPOS>SUBSTRUCTURE
     1 <0>         1 TEMP              0 ****  ****    0 ROOT

