
##########                                Name:          SM5_1_3D4Q
##########                    Molecular_Weight:             374.466
##########                DOCK_Rotatable_Bonds:                   5
##########                       Formal_Charge:              1.0004
##########                     HBond_Acceptors:                   6
##########                        HBond_Donors:                   4
##########                         Heavy_Atoms:                  28
##########                            HA_RMSDs:               8.164
##########                            HA_RMSDh:               7.378
##########                            HA_RMSDm:               5.941
##########                          Grid_Score:         -111.388229
##########                     Grid_vdw_energy:          -40.788559
##########                      Grid_es_energy:          -70.599670
##########           Internal_energy_repulsive:           10.487405

@<TRIPOS>MOLECULE
SM5_1_3D4Q
 52 56 1 0 0
SMALL
USER_CHARGES


@<TRIPOS>ATOM
      1 C1         87.7039   12.2871   -9.7644 C.ar    1  <0>        -0.0343
      2 C2         88.7389   10.1019  -10.2927 C.ar    1  <0>        -0.0343
      3 C3         88.9520   12.8873  -10.4288 C.ar    1  <0>         0.0282
      4 C4         89.8580   10.7743  -10.8861 C.ar    1  <0>         0.0282
      5 C5         85.1132    8.8755   -8.0180 C.2     1  <0>         0.0253
      6 C6         82.3781    8.7033   -7.5861 C.3     1  <0>         0.0081
      7 C7         82.3094   11.0190   -8.0968 C.3     1  <0>         0.0081
      8 C8         80.8177    8.5144   -7.6285 C.3     1  <0>        -0.0319
      9 C9         80.7795   10.9589   -8.3320 C.3     1  <0>        -0.0319
     10 C10        90.8580    7.6296   -5.5056 C.2     1  <0>        -0.0710
     11 C11        91.2731    6.0030   -5.4311 C.2     1  <0>        -0.0415
     12 C12        87.4623    6.9784   -8.2098 C.2     1  <0>        -0.0539
     13 C13        88.3169    5.9714   -7.7247 C.2     1  <0>        -0.0553
     14 C14        88.8156    8.7030   -6.9065 C.2     1  <0>        -0.0650
     15 C15        87.6337   10.9211   -9.7207 C.ar    1  <0>         0.0054
     16 C16        86.6466    9.1801   -8.3957 C.2     1  <0>         0.0248
     17 C17        86.6030   10.3029   -9.1869 C.2     1  <0>         0.0982
     18 C18        82.8443    9.8486   -8.4913 C.3     1  <0>         0.0553
     19 C19        89.6558    7.6406   -6.4333 C.3     1  <0>         0.0233
     20 C20        87.6488    8.3145   -7.8575 C.2     1  <0>        -0.0176
     21 C21        89.3635    6.2932   -6.8664 C.2     1  <0>        -0.0138
     22 C22        90.2415    5.3286   -6.3445 C.2     1  <0>         0.0560
     23 N1         89.9771   12.1399  -10.9653 N.ar    1  <0>        -0.2632
     24 N2         85.0139   10.7980   -9.3823 N.2     1  <0>        -0.1790
     25 N3         80.1610    9.8405   -7.4914 N.4     1  <0>         0.2271
     26 N4         90.1368    4.1449   -6.6517 N.pl3   1  <0>        -0.2287
     27 N5         84.3058    9.8398   -8.6266 N.pl3   1  <0>        -0.2270
     28 O1         90.7160    3.3243   -5.6644 O.3     1  <0>        -0.2974
     29 H1         86.9232   12.9100   -9.3536 H       1  <0>         0.0639
     30 H2         88.6981    9.0231  -10.2611 H       1  <0>         0.0639
     31 H3         89.0307   13.9633  -10.4785 H       1  <0>         0.0830
     32 H4         90.6546   10.1706  -11.2951 H       1  <0>         0.0830
     33 H5         84.7659    8.0622   -7.3980 H       1  <0>         0.0806
     34 H6         82.6764    8.9298   -6.5517 H       1  <0>         0.0336
     35 H7         82.8540    7.7715   -7.9255 H       1  <0>         0.0336
     36 H8         82.7449   11.8442   -8.6794 H       1  <0>         0.0336
     37 H9         82.5171   11.1837   -7.0293 H       1  <0>         0.0336
     38 H10        80.5281    8.0570   -8.5861 H       1  <0>         0.0814
     39 H11        80.5033    7.8604   -6.8019 H       1  <0>         0.0814
     40 H12        80.3302   11.9205   -8.0433 H       1  <0>         0.0814
     41 H13        80.5838   10.7630   -9.3966 H       1  <0>         0.0814
     42 H14        91.3319    8.4655   -5.0127 H       1  <0>         0.0582
     43 H15        92.0749    5.5422   -4.8732 H       1  <0>         0.0634
     44 H16        86.6475    6.7118   -8.8667 H       1  <0>         0.0624
     45 H17        88.1598    4.9445   -8.0198 H       1  <0>         0.0621
     46 H18        88.9864    9.7288   -6.6146 H       1  <0>         0.0587
     47 H19        82.4647    9.6986   -9.5128 H       1  <0>         0.0524
     48 H20        89.6346    8.7356   -6.3312 H       1  <0>         0.0435
     49 H21        79.2081    9.7381   -7.7769 H       1  <0>         0.2013
     50 H22        80.2239   10.1125   -6.5312 H       1  <0>         0.2013
     51 H23        89.1679    3.9144   -6.7417 H       1  <0>         0.1792
     52 H24        90.4963    2.4165   -5.8377 H       1  <0>         0.2413
@<TRIPOS>BOND
     1     1     3   ar
     2     1    15   ar
     3     2     4   ar
     4     2    15   ar
     5     3    23   ar
     6     4    23   ar
     7     5    16    2
     8     5    27    1
     9     6     8    1
    10     6    18    1
    11     7     9    1
    12     7    18    1
    13     8    25    1
    14     9    25    1
    15    10    11    2
    16    10    19    1
    17    11    22    1
    18    12    13    2
    19    12    20    1
    20    13    21    1
    21    14    19    1
    22    14    20    2
    23    15    17    1
    24    16    17    1
    25    16    20    1
    26    17    24    2
    27    18    27    1
    28    19    21    1
    29    21    22    2
    30    22    26    1
    31    24    27    1
    32    26    28    1
    33     1    29    1
    34     2    30    1
    35     3    31    1
    36     4    32    1
    37     5    33    1
    38     6    34    1
    39     6    35    1
    40     7    36    1
    41     7    37    1
    42     8    38    1
    43     8    39    1
    44     9    40    1
    45     9    41    1
    46    10    42    1
    47    11    43    1
    48    12    44    1
    49    13    45    1
    50    14    46    1
    51    18    47    1
    52    19    48    1
    53    25    49    1
    54    25    50    1
    55    26    51    1
    56    28    52    1
@<TRIPOS>SUBSTRUCTURE
     1 <0>         1 TEMP              0 ****  ****    0 ROOT

