
##########                                Name:          SM5_1_3D4Q
##########                    Molecular_Weight:             374.466
##########                DOCK_Rotatable_Bonds:                   5
##########                       Formal_Charge:              1.0004
##########                     HBond_Acceptors:                   6
##########                        HBond_Donors:                   4
##########                         Heavy_Atoms:                  28
##########                            HA_RMSDs:               7.801
##########                            HA_RMSDh:               6.565
##########                            HA_RMSDm:               4.791
##########                          Grid_Score:         -115.100082
##########                     Grid_vdw_energy:          -49.366081
##########                      Grid_es_energy:          -65.734001
##########           Internal_energy_repulsive:           20.594543

@<TRIPOS>MOLECULE
SM5_1_3D4Q
 52 56 1 0 0
SMALL
USER_CHARGES


@<TRIPOS>ATOM
      1 C1         84.5369   10.5323   -8.9820 C.ar    1  <0>        -0.0343
      2 C2         86.7940    9.5637   -8.6779 C.ar    1  <0>        -0.0343
      3 C3         85.2794   11.7268   -9.5994 C.ar    1  <0>         0.0282
      4 C4         87.3766   10.7332   -9.2691 C.ar    1  <0>         0.0282
      5 C5         84.3129    6.3629   -6.9187 C.2     1  <0>         0.0253
      6 C6         81.8980    5.3359   -5.7847 C.3     1  <0>         0.0081
      7 C7         80.7059    6.9010   -7.1102 C.3     1  <0>         0.0081
      8 C8         80.6815    4.3539   -5.6171 C.3     1  <0>        -0.0319
      9 C9         79.4730    5.9651   -7.1713 C.3     1  <0>        -0.0319
     10 C10        90.1197    7.6915   -4.8001 C.2     1  <0>        -0.0710
     11 C11        91.3233    6.5612   -5.1123 C.2     1  <0>        -0.0415
     12 C12        87.3062    5.9861   -7.7058 C.2     1  <0>        -0.0539
     13 C13        88.6022    5.5011   -7.4517 C.2     1  <0>        -0.0553
     14 C14        87.6898    7.8140   -5.9692 C.2     1  <0>        -0.0650
     15 C15        85.3117    9.4917   -8.5466 C.ar    1  <0>         0.0054
     16 C16        85.4530    7.4016   -7.3750 C.2     1  <0>         0.0248
     17 C17        84.7783    8.4138   -8.0145 C.2     1  <0>         0.0982
     18 C18        81.8149    6.1386   -7.0874 C.3     1  <0>         0.0553
     19 C19        89.0012    7.2787   -5.7407 C.3     1  <0>         0.0233
     20 C20        86.8064    7.0980   -7.0292 C.2     1  <0>        -0.0176
     21 C21        89.4091    6.1202   -6.5022 C.2     1  <0>        -0.0138
     22 C22        90.7067    5.6739   -6.2011 C.2     1  <0>         0.0560
     23 N1         86.6485   11.8020   -9.7304 N.ar    1  <0>        -0.2632
     24 N2         83.1351    8.0848   -8.0212 N.2     1  <0>        -0.1790
     25 N3         79.4216    5.0797   -5.9250 N.4     1  <0>         0.2271
     26 N4         91.2015    4.7195   -6.7935 N.pl3   1  <0>        -0.2287
     27 N5         83.0730    6.8523   -7.3372 N.pl3   1  <0>        -0.2270
     28 O1         92.5058    4.4686   -6.3253 O.3     1  <0>        -0.2974
     29 H1         83.4605   10.5147   -8.8960 H       1  <0>         0.0639
     30 H2         87.4174    8.7513   -8.3346 H       1  <0>         0.0639
     31 H3         84.6908   12.5604   -9.9532 H       1  <0>         0.0830
     32 H4         88.4522   10.7758   -9.3567 H       1  <0>         0.0830
     33 H5         84.4781    5.4419   -6.3794 H       1  <0>         0.0806
     34 H6         81.9009    6.0390   -4.9387 H       1  <0>         0.0336
     35 H7         82.8265    4.7462   -5.7943 H       1  <0>         0.0336
     36 H8         80.7213    7.5568   -7.9932 H       1  <0>         0.0336
     37 H9         80.6599    7.5208   -6.2027 H       1  <0>         0.0336
     38 H10        80.7957    3.5050   -6.3072 H       1  <0>         0.0814
     39 H11        80.6486    3.9815   -4.5827 H       1  <0>         0.0814
     40 H12        78.5581    6.5736   -7.2219 H       1  <0>         0.0814
     41 H13        79.5449    5.3286   -8.0656 H       1  <0>         0.0814
     42 H14        90.1373    8.5133   -4.0995 H       1  <0>         0.0582
     43 H15        92.2985    6.4791   -4.6554 H       1  <0>         0.0634
     44 H16        86.6875    5.4883   -8.4379 H       1  <0>         0.0624
     45 H17        88.9723    4.6447   -7.9958 H       1  <0>         0.0621
     46 H18        87.3317    8.6773   -5.4279 H       1  <0>         0.0587
     47 H19        81.7020    5.4563   -7.9428 H       1  <0>         0.0524
     48 H20        88.4254    8.1409   -5.3734 H       1  <0>         0.0435
     49 H21        78.7052    4.3969   -6.0674 H       1  <0>         0.2013
     50 H22        79.2113    5.6675   -5.1438 H       1  <0>         0.2013
     51 H23        90.6365    3.9092   -6.6383 H       1  <0>         0.1792
     52 H24        92.9620    3.9086   -6.9424 H       1  <0>         0.2413
@<TRIPOS>BOND
     1     1     3   ar
     2     1    15   ar
     3     2     4   ar
     4     2    15   ar
     5     3    23   ar
     6     4    23   ar
     7     5    16    2
     8     5    27    1
     9     6     8    1
    10     6    18    1
    11     7     9    1
    12     7    18    1
    13     8    25    1
    14     9    25    1
    15    10    11    2
    16    10    19    1
    17    11    22    1
    18    12    13    2
    19    12    20    1
    20    13    21    1
    21    14    19    1
    22    14    20    2
    23    15    17    1
    24    16    17    1
    25    16    20    1
    26    17    24    2
    27    18    27    1
    28    19    21    1
    29    21    22    2
    30    22    26    1
    31    24    27    1
    32    26    28    1
    33     1    29    1
    34     2    30    1
    35     3    31    1
    36     4    32    1
    37     5    33    1
    38     6    34    1
    39     6    35    1
    40     7    36    1
    41     7    37    1
    42     8    38    1
    43     8    39    1
    44     9    40    1
    45     9    41    1
    46    10    42    1
    47    11    43    1
    48    12    44    1
    49    13    45    1
    50    14    46    1
    51    18    47    1
    52    19    48    1
    53    25    49    1
    54    25    50    1
    55    26    51    1
    56    28    52    1
@<TRIPOS>SUBSTRUCTURE
     1 <0>         1 TEMP              0 ****  ****    0 ROOT

