
##########                                Name:        A92_351_3L3M
##########                    Molecular_Weight:             339.392
##########                DOCK_Rotatable_Bonds:                   4
##########                       Formal_Charge:              1.0001
##########                     HBond_Acceptors:                   6
##########                        HBond_Donors:                   5
##########                         Heavy_Atoms:                  25
##########                            HA_RMSDs:               6.152
##########                            HA_RMSDh:               5.812
##########                            HA_RMSDm:               5.298
##########                          Grid_Score:         -116.654144
##########                     Grid_vdw_energy:          -46.565174
##########                      Grid_es_energy:          -70.088966
##########           Internal_energy_repulsive:           12.571802

@<TRIPOS>MOLECULE
A92_351_3L3M
 45 48 1 0 0
SMALL
USER_CHARGES


@<TRIPOS>ATOM
      1 C1         24.5680    7.6170   26.7463 C.ar    1  <0>        -0.0589
      2 C2         25.6300    7.6226   27.6229 C.ar    1  <0>        -0.0477
      3 C3         24.3614    8.6305   25.8381 C.ar    1  <0>        -0.0344
      4 C4         28.5249   14.2793   24.3469 C.ar    1  <0>        -0.0524
      5 C5         28.1021   13.0690   24.8536 C.ar    1  <0>        -0.0481
      6 C6         26.2669   14.9660   24.0915 C.ar    1  <0>        -0.0173
      7 C7         29.4008   17.5835   21.6566 C.3     1  <0>        -0.0428
      8 C8         29.8520   18.6293   22.6468 C.3     1  <0>        -0.0124
      9 C9         29.1098   16.2909   22.3764 C.3     1  <0>        -0.0052
     10 C10        28.8273   18.7984   23.7424 C.3     1  <0>        -0.0331
     11 C11        27.6077   15.2308   23.9635 C.ar    1  <0>         0.0029
     12 C12        26.7586   12.7917   24.9759 C.ar    1  <0>         0.0502
     13 C13        26.5281    8.6631   27.6479 C.ar    1  <0>         0.0597
     14 C14        25.2689    9.6730   25.8550 C.ar    1  <0>         0.0878
     15 C15        25.8503   13.7576   24.5950 C.ar    1  <0>         0.1342
     16 C16        26.3144    9.6828   26.7513 C.ar    1  <0>         0.0704
     17 C17        26.3292   11.5092   25.4875 C.2     1  <0>         0.1336
     18 C18        28.0250   16.5368   23.3921 C.3     1  <0>         0.0033
     19 C19        27.6510    8.6292   28.5844 C.2     1  <0>         0.2434
     20 N1         28.4671    9.7274   28.4894 N.am    1  <0>        -0.3253
     21 N2         26.9770   10.8480   26.4934 N.pl3   1  <0>        -0.2966
     22 N3         25.2954   10.8008   25.0835 N.2     1  <0>        -0.2299
     23 N4         28.6121   17.4740   24.3704 N.4     1  <0>         0.2325
     24 O1         27.7881    7.6711   29.3350 O.2     1  <0>        -0.2704
     25 F1         24.5271   13.5660   24.6992 F       1  <0>        -0.2047
     26 H1         23.8742    6.7898   26.7721 H       1  <0>         0.0618
     27 H2         25.7597    6.7942   28.3035 H       1  <0>         0.0626
     28 H3         23.5317    8.6121   25.1469 H       1  <0>         0.0639
     29 H4         29.5813   14.4817   24.2503 H       1  <0>         0.0622
     30 H5         28.8306   12.3319   25.1573 H       1  <0>         0.0625
     31 H6         25.5395   15.7077   23.7964 H       1  <0>         0.0651
     32 H7         28.4892   17.9314   21.1488 H       1  <0>         0.0269
     33 H8         30.1954   17.4169   20.9145 H       1  <0>         0.0269
     34 H9         30.8074   18.3150   23.0924 H       1  <0>         0.0317
     35 H10        29.9819   19.5882   22.1239 H       1  <0>         0.0317
     36 H11        28.7770   15.5307   21.6543 H       1  <0>         0.0323
     37 H12        30.0192   15.9353   22.8831 H       1  <0>         0.0323
     38 H13        29.1924   19.5158   24.4921 H       1  <0>         0.0814
     39 H14        27.8831   19.1731   23.3204 H       1  <0>         0.0814
     40 H15        27.1070   16.9841   22.9830 H       1  <0>         0.0903
     41 H16        29.2746    9.8023   29.0744 H       1  <0>         0.1453
     42 H17        28.2545   10.4533   27.8353 H       1  <0>         0.1453
     43 H18        27.8007   11.1657   26.9631 H       1  <0>         0.1537
     44 H19        29.4891   17.1131   24.6874 H       1  <0>         0.2020
     45 H20        27.9887   17.5744   25.1459 H       1  <0>         0.2020
@<TRIPOS>BOND
     1     1     2   ar
     2     1     3   ar
     3     2    13   ar
     4     3    14   ar
     5     4     5   ar
     6     4    11   ar
     7     5    12   ar
     8     6    11   ar
     9     6    15   ar
    10     7     8    1
    11     7     9    1
    12     8    10    1
    13     9    18    1
    14    10    23    1
    15    11    18    1
    16    12    15   ar
    17    12    17    1
    18    13    16   ar
    19    13    19    1
    20    14    16   ar
    21    14    22    1
    22    15    25    1
    23    16    21    1
    24    17    21    1
    25    17    22    2
    26    18    23    1
    27    19    20   am
    28    19    24    2
    29     1    26    1
    30     2    27    1
    31     3    28    1
    32     4    29    1
    33     5    30    1
    34     6    31    1
    35     7    32    1
    36     7    33    1
    37     8    34    1
    38     8    35    1
    39     9    36    1
    40     9    37    1
    41    10    38    1
    42    10    39    1
    43    18    40    1
    44    20    41    1
    45    20    42    1
    46    21    43    1
    47    23    44    1
    48    23    45    1
@<TRIPOS>SUBSTRUCTURE
     1 <0>         1 TEMP              0 ****  ****    0 ROOT

