
##########                                Name:        A92_351_3L3M
##########                    Molecular_Weight:             339.392
##########                DOCK_Rotatable_Bonds:                   4
##########                       Formal_Charge:              1.0001
##########                     HBond_Acceptors:                   6
##########                        HBond_Donors:                   5
##########                         Heavy_Atoms:                  25
##########                            HA_RMSDs:               2.962
##########                            HA_RMSDh:               2.530
##########                            HA_RMSDm:               2.433
##########                          Grid_Score:         -112.528259
##########                     Grid_vdw_energy:          -53.622345
##########                      Grid_es_energy:          -58.905914
##########           Internal_energy_repulsive:           11.891184

@<TRIPOS>MOLECULE
A92_351_3L3M
 45 48 1 0 0
SMALL
USER_CHARGES


@<TRIPOS>ATOM
      1 C1         22.9982   10.4418   22.6750 C.ar    1  <0>        -0.0589
      2 C2         23.0268    9.2088   23.2874 C.ar    1  <0>        -0.0477
      3 C3         23.6511   11.5353   23.1971 C.ar    1  <0>        -0.0344
      4 C4         27.8059   11.8120   29.0746 C.ar    1  <0>        -0.0524
      5 C5         27.0278   11.3054   28.0556 C.ar    1  <0>        -0.0481
      6 C6         27.0818   14.0089   28.5413 C.ar    1  <0>        -0.0173
      7 C7         30.9229   14.5899   30.9042 C.3     1  <0>        -0.0428
      8 C8         30.8791   13.8896   32.2404 C.3     1  <0>        -0.0124
      9 C9         30.1004   13.8238   29.8991 C.3     1  <0>        -0.0052
     10 C10        29.4513   13.6978   32.6913 C.3     1  <0>        -0.0331
     11 C11        27.8355   13.1657   29.3193 C.ar    1  <0>         0.0029
     12 C12        26.2764   12.1455   27.2642 C.ar    1  <0>         0.0502
     13 C13        23.6956    9.0171   24.4730 C.ar    1  <0>         0.0597
     14 C14        24.3324   11.3423   24.3843 C.ar    1  <0>         0.0878
     15 C15        26.3095   13.4997   27.5256 C.ar    1  <0>         0.1342
     16 C16        24.3359   10.1120   25.0029 C.ar    1  <0>         0.0704
     17 C17        25.4827   11.6027   26.1842 C.2     1  <0>         0.1336
     18 C18        28.6792   13.7503   30.3930 C.3     1  <0>         0.0033
     19 C19        23.7147    7.6905   25.0884 C.2     1  <0>         0.2434
     20 N1         24.4953    7.6283   26.2143 N.am    1  <0>        -0.3253
     21 N2         25.0778   10.2980   26.1335 N.pl3   1  <0>        -0.2966
     22 N3         25.0451   12.2457   25.1218 N.2     1  <0>        -0.2299
     23 N4         28.7377   12.9483   31.6312 N.4     1  <0>         0.2325
     24 O1         23.0823    6.7741   24.5778 O.2     1  <0>        -0.2704
     25 F1         25.5930   14.3773   26.8079 F       1  <0>        -0.2047
     26 H1         22.4451   10.5547   21.7543 H       1  <0>         0.0618
     27 H2         22.5142    8.3768   22.8276 H       1  <0>         0.0626
     28 H3         23.6321   12.4959   22.7039 H       1  <0>         0.0639
     29 H4         28.3954   11.1429   29.6839 H       1  <0>         0.0622
     30 H5         27.0071   10.2406   27.8765 H       1  <0>         0.0625
     31 H6         27.0959   15.0726   28.7277 H       1  <0>         0.0651
     32 H7         30.5145   15.6056   31.0113 H       1  <0>         0.0269
     33 H8         31.9647   14.6463   30.5559 H       1  <0>         0.0269
     34 H9         31.3629   12.9060   32.1475 H       1  <0>         0.0317
     35 H10        31.4130   14.4992   32.9843 H       1  <0>         0.0317
     36 H11        30.1296   14.3374   28.9269 H       1  <0>         0.0323
     37 H12        30.5065   12.8079   29.7843 H       1  <0>         0.0323
     38 H13        29.4269   13.1318   33.6342 H       1  <0>         0.0814
     39 H14        28.9717   14.6750   32.8495 H       1  <0>         0.0814
     40 H15        28.2239   14.7243   30.6255 H       1  <0>         0.0903
     41 H16        24.5917    6.7645   26.7088 H       1  <0>         0.1453
     42 H17        24.9681    8.4468   26.5408 H       1  <0>         0.1453
     43 H18        25.2901    9.5956   26.8127 H       1  <0>         0.1537
     44 H19        29.2235   12.0936   31.4479 H       1  <0>         0.2020
     45 H20        27.8074   12.7479   31.9385 H       1  <0>         0.2020
@<TRIPOS>BOND
     1     1     2   ar
     2     1     3   ar
     3     2    13   ar
     4     3    14   ar
     5     4     5   ar
     6     4    11   ar
     7     5    12   ar
     8     6    11   ar
     9     6    15   ar
    10     7     8    1
    11     7     9    1
    12     8    10    1
    13     9    18    1
    14    10    23    1
    15    11    18    1
    16    12    15   ar
    17    12    17    1
    18    13    16   ar
    19    13    19    1
    20    14    16   ar
    21    14    22    1
    22    15    25    1
    23    16    21    1
    24    17    21    1
    25    17    22    2
    26    18    23    1
    27    19    20   am
    28    19    24    2
    29     1    26    1
    30     2    27    1
    31     3    28    1
    32     4    29    1
    33     5    30    1
    34     6    31    1
    35     7    32    1
    36     7    33    1
    37     8    34    1
    38     8    35    1
    39     9    36    1
    40     9    37    1
    41    10    38    1
    42    10    39    1
    43    18    40    1
    44    20    41    1
    45    20    42    1
    46    21    43    1
    47    23    44    1
    48    23    45    1
@<TRIPOS>SUBSTRUCTURE
     1 <0>         1 TEMP              0 ****  ****    0 ROOT

