
##########                                Name:        A92_351_3L3M
##########                    Molecular_Weight:             339.392
##########                DOCK_Rotatable_Bonds:                   4
##########                       Formal_Charge:              1.0001
##########                     HBond_Acceptors:                   6
##########                        HBond_Donors:                   5
##########                         Heavy_Atoms:                  25
##########                            HA_RMSDs:               8.663
##########                            HA_RMSDh:               8.322
##########                            HA_RMSDm:               7.724
##########                          Grid_Score:         -114.457756
##########                     Grid_vdw_energy:          -41.833244
##########                      Grid_es_energy:          -72.624512
##########           Internal_energy_repulsive:            8.058542

@<TRIPOS>MOLECULE
A92_351_3L3M
 45 48 1 0 0
SMALL
USER_CHARGES


@<TRIPOS>ATOM
      1 C1         24.6785   13.9949   31.5410 C.ar    1  <0>        -0.0589
      2 C2         25.9373   13.7180   32.0259 C.ar    1  <0>        -0.0477
      3 C3         24.4805   14.6532   30.3484 C.ar    1  <0>        -0.0344
      4 C4         29.4644   16.8904   25.6537 C.ar    1  <0>        -0.0524
      5 C5         28.8910   16.2755   26.7462 C.ar    1  <0>        -0.0481
      6 C6         27.4490   18.0820   25.2613 C.ar    1  <0>        -0.0173
      7 C7         29.4038   18.3935   21.2638 C.3     1  <0>        -0.0428
      8 C8         30.8858   18.6751   21.3081 C.3     1  <0>        -0.0124
      9 C9         28.9922   17.6301   22.4973 C.3     1  <0>        -0.0052
     10 C10        31.2494   19.3996   22.5815 C.3     1  <0>        -0.0331
     11 C11        28.7440   17.7948   24.9078 C.ar    1  <0>         0.0029
     12 C12        27.5892   16.5505   27.1017 C.ar    1  <0>         0.0502
     13 C13        27.0655   14.1114   31.3461 C.ar    1  <0>         0.0597
     14 C14        25.6137   15.0411   29.6585 C.ar    1  <0>         0.0878
     15 C15        26.8812   17.4650   26.3496 C.ar    1  <0>         0.1342
     16 C16        26.8688   14.7817   30.1622 C.ar    1  <0>         0.0704
     17 C17        26.9931   15.8809   28.2362 C.2     1  <0>         0.1336
     18 C18        29.3202   18.4598   23.7110 C.3     1  <0>         0.0033
     19 C19        28.3863   13.7892   31.8853 C.2     1  <0>         0.2434
     20 N1         29.3055   14.7895   31.6974 N.am    1  <0>        -0.3253
     21 N2         27.7251   15.3126   29.2412 N.pl3   1  <0>        -0.2966
     22 N3         25.7086   15.7137   28.4725 N.2     1  <0>        -0.2299
     23 N4         30.7925   18.5708   23.7212 N.4     1  <0>         0.2325
     24 O1         28.5757   12.7048   32.4225 O.2     1  <0>        -0.2704
     25 F1         25.6151   17.7951   26.6437 F       1  <0>        -0.2047
     26 H1         23.8181   13.6853   32.1155 H       1  <0>         0.0618
     27 H2         26.0401   13.1817   32.9576 H       1  <0>         0.0626
     28 H3         23.4893   14.8563   29.9708 H       1  <0>         0.0639
     29 H4         30.4841   16.6611   25.3819 H       1  <0>         0.0622
     30 H5         29.4676   15.5720   27.3284 H       1  <0>         0.0625
     31 H6         26.8766   18.7928   24.6840 H       1  <0>         0.0651
     32 H7         28.8529   19.3446   21.2228 H       1  <0>         0.0269
     33 H8         29.1728   17.7948   20.3704 H       1  <0>         0.0269
     34 H9         31.4349   17.7228   21.2660 H       1  <0>         0.0317
     35 H10        31.1593   19.3018   20.4464 H       1  <0>         0.0317
     36 H11        27.9112   17.4292   22.4660 H       1  <0>         0.0323
     37 H12        29.5368   16.6754   22.5420 H       1  <0>         0.0323
     38 H13        32.3386   19.5449   22.6343 H       1  <0>         0.0814
     39 H14        30.7568   20.3828   22.6094 H       1  <0>         0.0814
     40 H15        28.8908   19.4725   23.7036 H       1  <0>         0.0903
     41 H16        30.2461   14.6703   32.0151 H       1  <0>         0.1453
     42 H17        29.0350   15.6381   31.2426 H       1  <0>         0.1453
     43 H18        28.7234   15.2895   29.2931 H       1  <0>         0.1537
     44 H19        31.1925   17.6574   23.6458 H       1  <0>         0.2020
     45 H20        31.0850   18.9972   24.5771 H       1  <0>         0.2020
@<TRIPOS>BOND
     1     1     2   ar
     2     1     3   ar
     3     2    13   ar
     4     3    14   ar
     5     4     5   ar
     6     4    11   ar
     7     5    12   ar
     8     6    11   ar
     9     6    15   ar
    10     7     8    1
    11     7     9    1
    12     8    10    1
    13     9    18    1
    14    10    23    1
    15    11    18    1
    16    12    15   ar
    17    12    17    1
    18    13    16   ar
    19    13    19    1
    20    14    16   ar
    21    14    22    1
    22    15    25    1
    23    16    21    1
    24    17    21    1
    25    17    22    2
    26    18    23    1
    27    19    20   am
    28    19    24    2
    29     1    26    1
    30     2    27    1
    31     3    28    1
    32     4    29    1
    33     5    30    1
    34     6    31    1
    35     7    32    1
    36     7    33    1
    37     8    34    1
    38     8    35    1
    39     9    36    1
    40     9    37    1
    41    10    38    1
    42    10    39    1
    43    18    40    1
    44    20    41    1
    45    20    42    1
    46    21    43    1
    47    23    44    1
    48    23    45    1
@<TRIPOS>SUBSTRUCTURE
     1 <0>         1 TEMP              0 ****  ****    0 ROOT

