
##########                                Name:        A92_351_3L3M
##########                    Molecular_Weight:             339.392
##########                DOCK_Rotatable_Bonds:                   4
##########                       Formal_Charge:              1.0001
##########                     HBond_Acceptors:                   6
##########                        HBond_Donors:                   5
##########                         Heavy_Atoms:                  25
##########                            HA_RMSDs:               5.202
##########                            HA_RMSDh:               5.171
##########                            HA_RMSDm:               4.611
##########                          Grid_Score:         -119.952423
##########                     Grid_vdw_energy:          -48.381817
##########                      Grid_es_energy:          -71.570602
##########           Internal_energy_repulsive:            6.159424

@<TRIPOS>MOLECULE
A92_351_3L3M
 45 48 1 0 0
SMALL
USER_CHARGES


@<TRIPOS>ATOM
      1 C1         24.9640    8.7550   26.5005 C.ar    1  <0>        -0.0589
      2 C2         24.0737    9.0626   25.4959 C.ar    1  <0>        -0.0477
      3 C3         26.0806    9.5200   26.7504 C.ar    1  <0>        -0.0344
      4 C4         28.0960   15.8419   24.1574 C.ar    1  <0>        -0.0524
      5 C5         27.3268   14.7522   24.5057 C.ar    1  <0>        -0.0481
      6 C6         29.9881   14.4307   23.9043 C.ar    1  <0>        -0.0173
      7 C7         32.1229   18.2565   24.3019 C.3     1  <0>        -0.0428
      8 C8         31.4179   19.4726   23.7525 C.3     1  <0>        -0.0124
      9 C9         31.1078   17.2185   24.7091 C.3     1  <0>        -0.0052
     10 C10        30.5024   19.0858   22.6162 C.3     1  <0>        -0.0331
     11 C11        29.4294   15.6837   23.8567 C.ar    1  <0>         0.0029
     12 C12        27.8819   13.4933   24.5656 C.ar    1  <0>         0.0502
     13 C13        24.2741   10.1451   24.6727 C.ar    1  <0>         0.0597
     14 C14        26.2788   10.6146   25.9299 C.ar    1  <0>         0.0878
     15 C15        29.2180   13.3482   24.2541 C.ar    1  <0>         0.1342
     16 C16        25.3967   10.9014   24.9121 C.ar    1  <0>         0.0704
     17 C17        27.0687   12.3628   24.9548 C.2     1  <0>         0.1336
     18 C18        30.2950   16.8369   23.4996 C.3     1  <0>         0.0033
     19 C19        23.3009   10.4484   23.6239 C.2     1  <0>         0.2434
     20 N1         23.0291   11.7879   23.5100 N.am    1  <0>        -0.3253
     21 N2         25.9109   12.0165   24.3159 N.pl3   1  <0>        -0.2966
     22 N3         27.2982   11.5250   25.9443 N.2     1  <0>        -0.2299
     23 N4         29.5602   18.0605   23.1218 N.4     1  <0>         0.2325
     24 O1         22.8108    9.5379   22.9674 O.2     1  <0>        -0.2704
     25 F1         29.8243   12.1521   24.2752 F       1  <0>        -0.2047
     26 H1         24.7799    7.8846   27.1127 H       1  <0>         0.0618
     27 H2         23.2018    8.4417   25.3521 H       1  <0>         0.0626
     28 H3         26.7675    9.2772   27.5477 H       1  <0>         0.0639
     29 H4         27.6499   16.8247   24.1204 H       1  <0>         0.0622
     30 H5         26.2798   14.8870   24.7336 H       1  <0>         0.0625
     31 H6         31.0329   14.2960   23.6668 H       1  <0>         0.0651
     32 H7         32.7831   17.8372   23.5285 H       1  <0>         0.0269
     33 H8         32.7201   18.5463   25.1790 H       1  <0>         0.0269
     34 H9         30.8225   19.9361   24.5530 H       1  <0>         0.0317
     35 H10        32.1678   20.1877   23.3835 H       1  <0>         0.0317
     36 H11        31.6229   16.3310   25.1054 H       1  <0>         0.0323
     37 H12        30.4467   17.6304   25.4858 H       1  <0>         0.0323
     38 H13        29.9465   19.9671   22.2637 H       1  <0>         0.0814
     39 H14        31.0905   18.6776   21.7809 H       1  <0>         0.0814
     40 H15        30.8880   16.5015   22.6360 H       1  <0>         0.0903
     41 H16        22.3666   12.1077   22.8327 H       1  <0>         0.1453
     42 H17        23.4936   12.4446   24.1041 H       1  <0>         0.1453
     43 H18        25.5070   12.5004   23.5395 H       1  <0>         0.1537
     44 H19        29.0822   18.4190   23.9237 H       1  <0>         0.2020
     45 H20        28.8981   17.8396   22.4056 H       1  <0>         0.2020
@<TRIPOS>BOND
     1     1     2   ar
     2     1     3   ar
     3     2    13   ar
     4     3    14   ar
     5     4     5   ar
     6     4    11   ar
     7     5    12   ar
     8     6    11   ar
     9     6    15   ar
    10     7     8    1
    11     7     9    1
    12     8    10    1
    13     9    18    1
    14    10    23    1
    15    11    18    1
    16    12    15   ar
    17    12    17    1
    18    13    16   ar
    19    13    19    1
    20    14    16   ar
    21    14    22    1
    22    15    25    1
    23    16    21    1
    24    17    21    1
    25    17    22    2
    26    18    23    1
    27    19    20   am
    28    19    24    2
    29     1    26    1
    30     2    27    1
    31     3    28    1
    32     4    29    1
    33     5    30    1
    34     6    31    1
    35     7    32    1
    36     7    33    1
    37     8    34    1
    38     8    35    1
    39     9    36    1
    40     9    37    1
    41    10    38    1
    42    10    39    1
    43    18    40    1
    44    20    41    1
    45    20    42    1
    46    21    43    1
    47    23    44    1
    48    23    45    1
@<TRIPOS>SUBSTRUCTURE
     1 <0>         1 TEMP              0 ****  ****    0 ROOT

