
##########                                Name:        A92_351_3L3M
##########                    Molecular_Weight:             339.392
##########                DOCK_Rotatable_Bonds:                   4
##########                       Formal_Charge:              1.0001
##########                     HBond_Acceptors:                   6
##########                        HBond_Donors:                   5
##########                         Heavy_Atoms:                  25
##########                            HA_RMSDs:               8.980
##########                            HA_RMSDh:               8.601
##########                            HA_RMSDm:               8.027
##########                          Grid_Score:         -115.995056
##########                     Grid_vdw_energy:          -44.293331
##########                      Grid_es_energy:          -71.701721
##########           Internal_energy_repulsive:            5.868735

@<TRIPOS>MOLECULE
A92_351_3L3M
 45 48 1 0 0
SMALL
USER_CHARGES


@<TRIPOS>ATOM
      1 C1         25.6121   14.1902   32.0276 C.ar    1  <0>        -0.0589
      2 C2         26.9110   13.9421   32.4118 C.ar    1  <0>        -0.0477
      3 C3         25.3041   14.7901   30.8277 C.ar    1  <0>        -0.0344
      4 C4         29.6636   16.5906   25.4232 C.ar    1  <0>        -0.0524
      5 C5         29.2011   16.0249   26.5922 C.ar    1  <0>        -0.0481
      6 C6         27.9388   18.2186   25.5235 C.ar    1  <0>        -0.0173
      7 C7         29.2729   18.2081   21.1779 C.3     1  <0>        -0.0428
      8 C8         30.7600   18.4242   21.0388 C.3     1  <0>        -0.0124
      9 C9         28.9810   17.4805   22.4660 C.3     1  <0>        -0.0052
     10 C10        31.3051   19.1490   22.2456 C.3     1  <0>        -0.0331
     11 C11        29.0327   17.6887   24.8854 C.ar    1  <0>         0.0029
     12 C12        28.0984   16.5443   27.2332 C.ar    1  <0>         0.0502
     13 C13        27.9715   14.3076   31.6172 C.ar    1  <0>         0.0597
     14 C14        26.3688   15.1496   30.0228 C.ar    1  <0>         0.0878
     15 C15        27.4803   17.6501   26.6870 C.ar    1  <0>         0.1342
     16 C16        27.6656   14.9200   30.4252 C.ar    1  <0>         0.0704
     17 C17        27.6103   15.9268   28.4463 C.2     1  <0>         0.1336
     18 C18        29.4880   18.3112   23.6158 C.3     1  <0>         0.0033
     19 C19        29.3374   14.0170   32.0521 C.2     1  <0>         0.2434
     20 N1         30.2047   15.0582   31.8408 N.am    1  <0>        -0.3253
     21 N2         28.4328   15.4101   29.4081 N.pl3   1  <0>        -0.2966
     22 N3         26.3531   15.7655   28.8027 N.2     1  <0>        -0.2299
     23 N4         30.9541   18.3567   23.4472 N.4     1  <0>         0.2325
     24 O1         29.6025   12.9220   32.5326 O.2     1  <0>        -0.2704
     25 F1         26.4115   18.2205   27.2624 F       1  <0>        -0.2047
     26 H1         24.8083   13.9045   32.6899 H       1  <0>         0.0618
     27 H2         27.1000   13.4511   33.3550 H       1  <0>         0.0626
     28 H3         24.2818   14.9707   30.5300 H       1  <0>         0.0639
     29 H4         30.5256   16.1696   24.9270 H       1  <0>         0.0622
     30 H5         29.7078   15.1670   27.0089 H       1  <0>         0.0625
     31 H6         27.4389   19.0823   25.1108 H       1  <0>         0.0651
     32 H7         28.7619   19.1822   21.1854 H       1  <0>         0.0269
     33 H8         28.9105   17.6083   20.3301 H       1  <0>         0.0269
     34 H9         31.2590   17.4479   20.9491 H       1  <0>         0.0317
     35 H10        30.9539   19.0263   20.1389 H       1  <0>         0.0317
     36 H11        27.8966   17.3274   22.5684 H       1  <0>         0.0323
     37 H12        29.4860   16.5032   22.4630 H       1  <0>         0.0323
     38 H13        32.3978   19.2464   22.1647 H       1  <0>         0.0814
     39 H14        30.8616   20.1533   22.3139 H       1  <0>         0.0814
     40 H15        29.1042   19.3418   23.6409 H       1  <0>         0.0903
     41 H16        31.1689   14.9639   32.0887 H       1  <0>         0.1453
     42 H17        29.8730   15.9117   31.4389 H       1  <0>         0.1453
     43 H18        29.4320   15.3939   29.3726 H       1  <0>         0.1537
     44 H19        31.3029   17.4255   23.3415 H       1  <0>         0.2020
     45 H20        31.3656   18.7813   24.2538 H       1  <0>         0.2020
@<TRIPOS>BOND
     1     1     2   ar
     2     1     3   ar
     3     2    13   ar
     4     3    14   ar
     5     4     5   ar
     6     4    11   ar
     7     5    12   ar
     8     6    11   ar
     9     6    15   ar
    10     7     8    1
    11     7     9    1
    12     8    10    1
    13     9    18    1
    14    10    23    1
    15    11    18    1
    16    12    15   ar
    17    12    17    1
    18    13    16   ar
    19    13    19    1
    20    14    16   ar
    21    14    22    1
    22    15    25    1
    23    16    21    1
    24    17    21    1
    25    17    22    2
    26    18    23    1
    27    19    20   am
    28    19    24    2
    29     1    26    1
    30     2    27    1
    31     3    28    1
    32     4    29    1
    33     5    30    1
    34     6    31    1
    35     7    32    1
    36     7    33    1
    37     8    34    1
    38     8    35    1
    39     9    36    1
    40     9    37    1
    41    10    38    1
    42    10    39    1
    43    18    40    1
    44    20    41    1
    45    20    42    1
    46    21    43    1
    47    23    44    1
    48    23    45    1
@<TRIPOS>SUBSTRUCTURE
     1 <0>         1 TEMP              0 ****  ****    0 ROOT

