
##########                                Name:        A92_351_3L3M
##########                    Molecular_Weight:             339.392
##########                DOCK_Rotatable_Bonds:                   4
##########                       Formal_Charge:              1.0001
##########                     HBond_Acceptors:                   6
##########                        HBond_Donors:                   5
##########                         Heavy_Atoms:                  25
##########                            HA_RMSDs:               8.997
##########                            HA_RMSDh:               8.469
##########                            HA_RMSDm:               7.912
##########                          Grid_Score:         -117.994553
##########                     Grid_vdw_energy:          -44.203823
##########                      Grid_es_energy:          -73.790726
##########           Internal_energy_repulsive:           11.240376

@<TRIPOS>MOLECULE
A92_351_3L3M
 45 48 1 0 0
SMALL
USER_CHARGES


@<TRIPOS>ATOM
      1 C1         26.7524   13.5399   32.4090 C.ar    1  <0>        -0.0589
      2 C2         28.0904   13.6932   32.6962 C.ar    1  <0>        -0.0477
      3 C3         26.2154   13.9099   31.1969 C.ar    1  <0>        -0.0344
      4 C4         29.6645   16.5446   25.4496 C.ar    1  <0>        -0.0524
      5 C5         29.4446   15.9942   26.6942 C.ar    1  <0>        -0.0481
      6 C6         27.3631   17.1033   25.2854 C.ar    1  <0>        -0.0173
      7 C7         29.0269   17.1255   21.0120 C.3     1  <0>        -0.0428
      8 C8         30.1400   18.1354   20.8752 C.3     1  <0>        -0.0124
      9 C9         29.0229   16.5562   22.4082 C.3     1  <0>        -0.0052
     10 C10        30.0173   19.2055   21.9329 C.3     1  <0>        -0.0331
     11 C11        28.6235   17.0999   24.7415 C.ar    1  <0>         0.0029
     12 C12        28.1813   15.9848   27.2427 C.ar    1  <0>         0.0502
     13 C13        28.9557   14.2507   31.7849 C.ar    1  <0>         0.0597
     14 C14        27.0856   14.4617   30.2755 C.ar    1  <0>         0.0878
     15 C15        27.1485   16.5517   26.5251 C.ar    1  <0>         0.1342
     16 C16        28.4176   14.6339   30.5794 C.ar    1  <0>         0.0704
     17 C17        27.9611   15.3835   28.5392 C.2     1  <0>         0.1336
     18 C18        28.8174   17.6814   23.3885 C.3     1  <0>         0.0033
     19 C19        30.3729   14.3866   32.1199 C.2     1  <0>         0.2434
     20 N1         31.0692   15.1542   31.2217 N.am    1  <0>        -0.3253
     21 N2         28.9532   15.2087   29.4631 N.pl3   1  <0>        -0.2966
     22 N3         26.8231   14.9241   29.0164 N.2     1  <0>        -0.2299
     23 N4         30.0129   18.5377   23.2553 N.4     1  <0>         0.2325
     24 O1         30.8195   13.8254   33.1128 O.2     1  <0>        -0.2704
     25 F1         25.8952   16.5936   27.0006 F       1  <0>        -0.2047
     26 H1         26.1027   13.1152   33.1599 H       1  <0>         0.0618
     27 H2         28.4671   13.3695   33.6551 H       1  <0>         0.0626
     28 H3         25.1666   13.7757   30.9767 H       1  <0>         0.0639
     29 H4         30.6588   16.5400   25.0281 H       1  <0>         0.0622
     30 H5         30.2701   15.5668   27.2440 H       1  <0>         0.0625
     31 H6         26.5403   17.5397   24.7387 H       1  <0>         0.0651
     32 H7         28.0625   17.6169   20.8158 H       1  <0>         0.0269
     33 H8         29.1807   16.3127   20.2871 H       1  <0>         0.0269
     34 H9         31.1068   17.6237   20.9909 H       1  <0>         0.0317
     35 H10        30.0820   18.6030   19.8812 H       1  <0>         0.0317
     36 H11        28.2086   15.8234   22.5081 H       1  <0>         0.0323
     37 H12        29.9836   16.0594   22.6093 H       1  <0>         0.0323
     38 H13        30.8666   19.9012   21.8652 H       1  <0>         0.0814
     39 H14        29.0829   19.7687   21.7923 H       1  <0>         0.0814
     40 H15        27.9230   18.2939   23.2021 H       1  <0>         0.0903
     41 H16        32.0503   15.3027   31.3457 H       1  <0>         0.1453
     42 H17        30.5958   15.5655   30.4427 H       1  <0>         0.1453
     43 H18        29.9133   15.4605   29.3414 H       1  <0>         0.1537
     44 H19        30.8339   17.9735   23.3423 H       1  <0>         0.2020
     45 H20        30.0030   19.2318   23.9751 H       1  <0>         0.2020
@<TRIPOS>BOND
     1     1     2   ar
     2     1     3   ar
     3     2    13   ar
     4     3    14   ar
     5     4     5   ar
     6     4    11   ar
     7     5    12   ar
     8     6    11   ar
     9     6    15   ar
    10     7     8    1
    11     7     9    1
    12     8    10    1
    13     9    18    1
    14    10    23    1
    15    11    18    1
    16    12    15   ar
    17    12    17    1
    18    13    16   ar
    19    13    19    1
    20    14    16   ar
    21    14    22    1
    22    15    25    1
    23    16    21    1
    24    17    21    1
    25    17    22    2
    26    18    23    1
    27    19    20   am
    28    19    24    2
    29     1    26    1
    30     2    27    1
    31     3    28    1
    32     4    29    1
    33     5    30    1
    34     6    31    1
    35     7    32    1
    36     7    33    1
    37     8    34    1
    38     8    35    1
    39     9    36    1
    40     9    37    1
    41    10    38    1
    42    10    39    1
    43    18    40    1
    44    20    41    1
    45    20    42    1
    46    21    43    1
    47    23    44    1
    48    23    45    1
@<TRIPOS>SUBSTRUCTURE
     1 <0>         1 TEMP              0 ****  ****    0 ROOT

