
##########                                Name:        A92_351_3L3M
##########                    Molecular_Weight:             339.392
##########                DOCK_Rotatable_Bonds:                   4
##########                       Formal_Charge:              1.0001
##########                     HBond_Acceptors:                   6
##########                        HBond_Donors:                   5
##########                         Heavy_Atoms:                  25
##########                            HA_RMSDs:               8.264
##########                            HA_RMSDh:               7.960
##########                            HA_RMSDm:               7.340
##########                          Grid_Score:         -115.353271
##########                     Grid_vdw_energy:          -39.679760
##########                      Grid_es_energy:          -75.673515
##########           Internal_energy_repulsive:           11.397762

@<TRIPOS>MOLECULE
A92_351_3L3M
 45 48 1 0 0
SMALL
USER_CHARGES


@<TRIPOS>ATOM
      1 C1         26.7084   14.0419   32.6385 C.ar    1  <0>        -0.0589
      2 C2         25.4258   14.4775   32.3904 C.ar    1  <0>        -0.0477
      3 C3         27.7257   14.1987   31.7246 C.ar    1  <0>        -0.0344
      4 C4         27.8822   17.7933   25.5550 C.ar    1  <0>        -0.0524
      5 C5         27.4929   17.3468   26.7998 C.ar    1  <0>        -0.0481
      6 C6         28.9204   15.7022   25.1250 C.ar    1  <0>        -0.0173
      7 C7         31.0408   17.9161   22.0288 C.3     1  <0>        -0.0428
      8 C8         30.3603   19.1439   21.4747 C.3     1  <0>        -0.0124
      9 C9         30.5443   17.6441   23.4263 C.3     1  <0>        -0.0052
     10 C10        28.8598   18.9893   21.5326 C.3     1  <0>        -0.0331
     11 C11        28.5981   16.9719   24.7147 C.ar    1  <0>         0.0029
     12 C12        27.8208   16.0779   27.2229 C.ar    1  <0>         0.0502
     13 C13        25.0936   15.0732   31.1968 C.ar    1  <0>         0.0597
     14 C14        27.3960   14.8063   30.5276 C.ar    1  <0>         0.0878
     15 C15        28.5321   15.2625   26.3672 C.ar    1  <0>         0.1342
     16 C16        26.1056   15.2171   30.2777 C.ar    1  <0>         0.0704
     17 C17        27.4256   15.6308   28.5401 C.2     1  <0>         0.1336
     18 C18        29.0547   17.4257   23.3760 C.3     1  <0>         0.0033
     19 C19        23.7238   15.5344   30.9731 C.2     1  <0>         0.2434
     20 N1         23.5193   16.0277   29.7099 N.am    1  <0>        -0.3253
     21 N2         26.1506   15.7446   29.0195 N.pl3   1  <0>        -0.2966
     22 N3         28.1948   15.0717   29.4509 N.2     1  <0>        -0.2299
     23 N4         28.4859   18.7165   22.9398 N.4     1  <0>         0.2325
     24 O1         22.9040   15.4680   31.8807 O.2     1  <0>        -0.2704
     25 F1         28.8740   14.0099   26.7032 F       1  <0>        -0.2047
     26 H1         26.9232   13.5615   33.5815 H       1  <0>         0.0618
     27 H2         24.6666   14.3486   33.1476 H       1  <0>         0.0626
     28 H3         28.7311   13.8637   31.9324 H       1  <0>         0.0639
     29 H4         27.6241   18.7928   25.2378 H       1  <0>         0.0622
     30 H5         26.9258   17.9977   27.4488 H       1  <0>         0.0625
     31 H6         29.4792   15.0490   24.4712 H       1  <0>         0.0651
     32 H7         30.8142   17.0523   21.3866 H       1  <0>         0.0269
     33 H8         32.1280   18.0817   22.0538 H       1  <0>         0.0269
     34 H9         30.6555   20.0196   22.0714 H       1  <0>         0.0317
     35 H10        30.6679   19.2848   20.4280 H       1  <0>         0.0317
     36 H11        31.0378   16.7467   23.8275 H       1  <0>         0.0323
     37 H12        30.7719   18.5030   24.0749 H       1  <0>         0.0323
     38 H13        28.3724   19.9124   21.1855 H       1  <0>         0.0814
     39 H14        28.5420   18.1550   20.8899 H       1  <0>         0.0814
     40 H15        28.7297   16.6428   22.6749 H       1  <0>         0.0903
     41 H16        22.6213   16.3836   29.4514 H       1  <0>         0.1453
     42 H17        24.2682   16.0314   29.0472 H       1  <0>         0.1453
     43 H18        25.3779   16.1478   28.5293 H       1  <0>         0.1537
     44 H19        28.8412   19.4472   23.5228 H       1  <0>         0.2020
     45 H20        27.4893   18.6799   23.0150 H       1  <0>         0.2020
@<TRIPOS>BOND
     1     1     2   ar
     2     1     3   ar
     3     2    13   ar
     4     3    14   ar
     5     4     5   ar
     6     4    11   ar
     7     5    12   ar
     8     6    11   ar
     9     6    15   ar
    10     7     8    1
    11     7     9    1
    12     8    10    1
    13     9    18    1
    14    10    23    1
    15    11    18    1
    16    12    15   ar
    17    12    17    1
    18    13    16   ar
    19    13    19    1
    20    14    16   ar
    21    14    22    1
    22    15    25    1
    23    16    21    1
    24    17    21    1
    25    17    22    2
    26    18    23    1
    27    19    20   am
    28    19    24    2
    29     1    26    1
    30     2    27    1
    31     3    28    1
    32     4    29    1
    33     5    30    1
    34     6    31    1
    35     7    32    1
    36     7    33    1
    37     8    34    1
    38     8    35    1
    39     9    36    1
    40     9    37    1
    41    10    38    1
    42    10    39    1
    43    18    40    1
    44    20    41    1
    45    20    42    1
    46    21    43    1
    47    23    44    1
    48    23    45    1
@<TRIPOS>SUBSTRUCTURE
     1 <0>         1 TEMP              0 ****  ****    0 ROOT

