
##########                                Name:        A92_351_3L3M
##########                    Molecular_Weight:             339.392
##########                DOCK_Rotatable_Bonds:                   4
##########                       Formal_Charge:              1.0001
##########                     HBond_Acceptors:                   6
##########                        HBond_Donors:                   5
##########                         Heavy_Atoms:                  25
##########                            HA_RMSDs:               4.937
##########                            HA_RMSDh:               4.906
##########                            HA_RMSDm:               4.410
##########                          Grid_Score:         -118.181160
##########                     Grid_vdw_energy:          -48.239426
##########                      Grid_es_energy:          -69.941734
##########           Internal_energy_repulsive:           10.959898

@<TRIPOS>MOLECULE
A92_351_3L3M
 45 48 1 0 0
SMALL
USER_CHARGES


@<TRIPOS>ATOM
      1 C1         24.4812    8.3952   26.2959 C.ar    1  <0>        -0.0589
      2 C2         23.7122    8.6344   25.1790 C.ar    1  <0>        -0.0477
      3 C3         25.5386    9.2042   26.6452 C.ar    1  <0>        -0.0344
      4 C4         27.6739   15.4299   23.8466 C.ar    1  <0>        -0.0524
      5 C5         26.9001   14.3299   24.1493 C.ar    1  <0>        -0.0481
      6 C6         29.6400   14.1684   24.2692 C.ar    1  <0>        -0.0173
      7 C7         31.5859   18.0328   24.5675 C.3     1  <0>        -0.0428
      8 C8         30.9142   19.2031   23.8917 C.3     1  <0>        -0.0124
      9 C9         30.5622   16.9742   24.8917 C.3     1  <0>        -0.0052
     10 C10        30.1537   18.7447   22.6709 C.3     1  <0>        -0.0331
     11 C11        29.0464   15.3519   23.9068 C.ar    1  <0>         0.0029
     12 C12        27.4875   13.1418   24.5233 C.ar    1  <0>         0.0502
     13 C13        23.9828    9.6890   24.3397 C.ar    1  <0>         0.0597
     14 C14        25.8064   10.2709   25.8079 C.ar    1  <0>         0.0878
     15 C15        28.8646   13.0755   24.5720 C.ar    1  <0>         0.1342
     16 C16        25.0476   10.4891   24.6797 C.ar    1  <0>         0.0704
     17 C17        26.6629   12.0027   24.8602 C.2     1  <0>         0.1336
     18 C18        29.9121   16.5220   23.6102 C.3     1  <0>         0.0033
     19 C19        23.1369    9.9197   23.1691 C.2     1  <0>         0.2434
     20 N1         23.6856   10.7987   22.2707 N.am    1  <0>        -0.3253
     21 N2         25.6010   11.5951   24.1021 N.pl3   1  <0>        -0.2966
     22 N3         26.7922   11.2126   25.9056 N.2     1  <0>        -0.2299
     23 N4         29.1901   17.7048   23.1008 N.4     1  <0>         0.2325
     24 O1         22.0519    9.3578   23.0827 O.2     1  <0>        -0.2704
     25 F1         29.5079   11.9491   24.9123 F       1  <0>        -0.2047
     26 H1         24.2469    7.5445   26.9185 H       1  <0>         0.0618
     27 H2         22.8809    7.9813   24.9581 H       1  <0>         0.0626
     28 H3         26.1295    9.0149   27.5292 H       1  <0>         0.0639
     29 H4         27.2006   16.3576   23.5608 H       1  <0>         0.0622
     30 H5         25.8239   14.4005   24.0925 H       1  <0>         0.0625
     31 H6         30.7165   14.0964   24.3162 H       1  <0>         0.0651
     32 H7         32.3467   17.6105   23.8946 H       1  <0>         0.0269
     33 H8         32.0646   18.3740   25.4972 H       1  <0>         0.0269
     34 H9         30.2132   19.6728   24.5975 H       1  <0>         0.0317
     35 H10        31.6803   19.9311   23.5866 H       1  <0>         0.0317
     36 H11        31.0536   16.1199   25.3803 H       1  <0>         0.0323
     37 H12        29.8004   17.3891   25.5681 H       1  <0>         0.0323
     38 H13        29.6168   19.5929   22.2211 H       1  <0>         0.0814
     39 H14        30.8499   18.3288   21.9276 H       1  <0>         0.0814
     40 H15        30.6144   16.1780   22.8366 H       1  <0>         0.0903
     41 H16        23.1862   11.0402   21.4387 H       1  <0>         0.1453
     42 H17        24.5852   11.1981   22.4476 H       1  <0>         0.1453
     43 H18        25.2821   12.0348   23.2624 H       1  <0>         0.1537
     44 H19        28.6088   18.0738   23.8260 H       1  <0>         0.2020
     45 H20        28.6256   17.4356   22.3205 H       1  <0>         0.2020
@<TRIPOS>BOND
     1     1     2   ar
     2     1     3   ar
     3     2    13   ar
     4     3    14   ar
     5     4     5   ar
     6     4    11   ar
     7     5    12   ar
     8     6    11   ar
     9     6    15   ar
    10     7     8    1
    11     7     9    1
    12     8    10    1
    13     9    18    1
    14    10    23    1
    15    11    18    1
    16    12    15   ar
    17    12    17    1
    18    13    16   ar
    19    13    19    1
    20    14    16   ar
    21    14    22    1
    22    15    25    1
    23    16    21    1
    24    17    21    1
    25    17    22    2
    26    18    23    1
    27    19    20   am
    28    19    24    2
    29     1    26    1
    30     2    27    1
    31     3    28    1
    32     4    29    1
    33     5    30    1
    34     6    31    1
    35     7    32    1
    36     7    33    1
    37     8    34    1
    38     8    35    1
    39     9    36    1
    40     9    37    1
    41    10    38    1
    42    10    39    1
    43    18    40    1
    44    20    41    1
    45    20    42    1
    46    21    43    1
    47    23    44    1
    48    23    45    1
@<TRIPOS>SUBSTRUCTURE
     1 <0>         1 TEMP              0 ****  ****    0 ROOT

