
##########                                Name:        A92_351_3L3M
##########                    Molecular_Weight:             339.392
##########                DOCK_Rotatable_Bonds:                   4
##########                       Formal_Charge:              1.0001
##########                     HBond_Acceptors:                   6
##########                        HBond_Donors:                   5
##########                         Heavy_Atoms:                  25
##########                            HA_RMSDs:               4.931
##########                            HA_RMSDh:               4.912
##########                            HA_RMSDm:               4.393
##########                          Grid_Score:         -119.152283
##########                     Grid_vdw_energy:          -49.495586
##########                      Grid_es_energy:          -69.656693
##########           Internal_energy_repulsive:           10.125108

@<TRIPOS>MOLECULE
A92_351_3L3M
 45 48 1 0 0
SMALL
USER_CHARGES


@<TRIPOS>ATOM
      1 C1         24.6460    8.6228   26.1969 C.ar    1  <0>        -0.0589
      2 C2         23.7639    9.0899   25.2483 C.ar    1  <0>        -0.0477
      3 C3         25.8289    9.2675   26.4790 C.ar    1  <0>        -0.0344
      4 C4         28.3025   15.5991   24.3163 C.ar    1  <0>        -0.0524
      5 C5         27.4519   14.5502   24.5929 C.ar    1  <0>        -0.0481
      6 C6         30.0939   14.0716   24.0113 C.ar    1  <0>        -0.0173
      7 C7         32.3827   17.8126   24.7120 C.3     1  <0>        -0.0428
      8 C8         31.7954   19.0518   24.0819 C.3     1  <0>        -0.0124
      9 C9         31.2833   16.8296   25.0261 C.3     1  <0>        -0.0052
     10 C10        30.9804   18.6909   22.8635 C.3     1  <0>        -0.0331
     11 C11        29.6264   15.3622   24.0257 C.ar    1  <0>         0.0029
     12 C12        27.9152   13.2532   24.5904 C.ar    1  <0>         0.0502
     13 C13        24.0381   10.2199   24.5151 C.ar    1  <0>         0.0597
     14 C14        26.1021   10.4095   25.7496 C.ar    1  <0>         0.0878
     15 C15        29.2429   13.0297   24.2897 C.ar    1  <0>         0.1342
     16 C16        25.2260   10.8565   24.7858 C.ar    1  <0>         0.0704
     17 C17        27.0171   12.1645   24.9049 C.2     1  <0>         0.1336
     18 C18        30.5778   16.4680   23.7452 C.3     1  <0>         0.0033
     19 C19        23.0721   10.6937   23.5244 C.2     1  <0>         0.2434
     20 N1         23.3832   11.9278   23.0134 N.am    1  <0>        -0.3253
     21 N2         25.8205   11.9729   24.2724 N.pl3   1  <0>        -0.2966
     22 N3         27.1955   11.2272   25.8122 N.2     1  <0>        -0.2299
     23 N4         29.9442   17.7188   23.2827 N.4     1  <0>         0.2325
     24 O1         22.0988   10.0041   23.2461 O.2     1  <0>        -0.2704
     25 F1         29.7624   11.7938   24.2526 F       1  <0>        -0.2047
     26 H1         24.4015    7.7204   26.7376 H       1  <0>         0.0618
     27 H2         22.8393    8.5587   25.0772 H       1  <0>         0.0626
     28 H3         26.5095    8.8996   27.2325 H       1  <0>         0.0639
     29 H4         27.9279   16.6120   24.3279 H       1  <0>         0.0622
     30 H5         26.4132   14.7471   24.8135 H       1  <0>         0.0625
     31 H6         31.1306   13.8754   23.7811 H       1  <0>         0.0651
     32 H7         33.0960   17.3511   24.0133 H       1  <0>         0.0269
     33 H8         32.9027   18.0875   25.6415 H       1  <0>         0.0269
     34 H9         31.1462   19.5549   24.8136 H       1  <0>         0.0317
     35 H10        32.6120   19.7253   23.7825 H       1  <0>         0.0317
     36 H11        31.7130   15.9251   25.4814 H       1  <0>         0.0323
     37 H12        30.5686   17.2838   25.7282 H       1  <0>         0.0323
     38 H13        30.5055   19.5919   22.4477 H       1  <0>         0.0814
     39 H14        31.6286   18.2430   22.0958 H       1  <0>         0.0814
     40 H15        31.2373   16.0920   22.9492 H       1  <0>         0.0903
     41 H16        22.7829   12.3548   22.3372 H       1  <0>         0.1453
     42 H17        24.2104   12.4006   23.3170 H       1  <0>         0.1453
     43 H18        25.4428   12.5547   23.5521 H       1  <0>         0.1537
     44 H19        29.4064   18.1115   24.0287 H       1  <0>         0.2020
     45 H20        29.3470   17.5182   22.5060 H       1  <0>         0.2020
@<TRIPOS>BOND
     1     1     2   ar
     2     1     3   ar
     3     2    13   ar
     4     3    14   ar
     5     4     5   ar
     6     4    11   ar
     7     5    12   ar
     8     6    11   ar
     9     6    15   ar
    10     7     8    1
    11     7     9    1
    12     8    10    1
    13     9    18    1
    14    10    23    1
    15    11    18    1
    16    12    15   ar
    17    12    17    1
    18    13    16   ar
    19    13    19    1
    20    14    16   ar
    21    14    22    1
    22    15    25    1
    23    16    21    1
    24    17    21    1
    25    17    22    2
    26    18    23    1
    27    19    20   am
    28    19    24    2
    29     1    26    1
    30     2    27    1
    31     3    28    1
    32     4    29    1
    33     5    30    1
    34     6    31    1
    35     7    32    1
    36     7    33    1
    37     8    34    1
    38     8    35    1
    39     9    36    1
    40     9    37    1
    41    10    38    1
    42    10    39    1
    43    18    40    1
    44    20    41    1
    45    20    42    1
    46    21    43    1
    47    23    44    1
    48    23    45    1
@<TRIPOS>SUBSTRUCTURE
     1 <0>         1 TEMP              0 ****  ****    0 ROOT

