Z1241145220
 OpenBabel06162400272D

 24 27  0  0  0  0  0  0  0  0999 V2000
   12.7299  -13.7523    0.0000 C   0  0  0  0  0  0  0  0  0  0  0  0
   14.1970  -13.4405    0.0000 C   0  0  0  0  0  0  0  0  0  0  0  0
   14.6606  -12.0139    0.0000 N   0  0  0  0  0  0  0  0  0  0  0  0
   13.6570  -10.8992    0.0000 C   0  0  0  0  0  0  0  0  0  0  0  0
   14.1204   -9.4726    0.0000 C   0  0  0  0  0  0  0  0  0  0  0  0
   15.5876   -9.1606    0.0000 C   0  0  0  0  0  0  0  0  0  0  0  0
   16.5914  -10.2755    0.0000 C   0  0  0  0  0  0  0  0  0  0  0  0
   16.1277  -11.7021    0.0000 C   0  0  0  0  0  0  0  0  0  0  0  0
   16.0512   -7.7341    0.0000 C   0  0  0  0  0  0  0  0  0  0  0  0
   15.1694   -6.5206    0.0000 C   0  0  0  0  0  0  0  0  0  0  0  0
   16.0512   -5.3069    0.0000 N   0  0  0  0  0  0  0  0  0  0  0  0
   17.4778   -5.7706    0.0000 C   0  0  0  0  0  0  0  0  0  0  0  0
   18.7769   -5.0207    0.0000 N   0  0  0  0  0  0  0  0  0  0  0  0
   20.0758   -5.7706    0.0000 C   0  0  0  0  0  0  0  0  0  0  0  0
   20.0758   -7.2706    0.0000 C   0  0  0  0  0  0  0  0  0  0  0  0
   18.7769   -8.0206    0.0000 C   0  0  0  0  0  0  0  0  0  0  0  0
   17.4778   -7.2706    0.0000 C   0  0  0  0  0  0  0  0  0  0  0  0
   12.2664  -15.1790    0.0000 C   0  0  0  0  0  0  0  0  0  0  0  0
   10.7991  -15.4909    0.0000 C   0  0  0  0  0  0  0  0  0  0  0  0
   10.3357  -16.9174    0.0000 C   0  0  0  0  0  0  0  0  0  0  0  0
    8.8684  -17.2293    0.0000 C   0  0  0  0  0  0  0  0  0  0  0  0
    7.8647  -16.1147    0.0000 C   0  0  0  0  0  0  0  0  0  0  0  0
    8.3282  -14.6881    0.0000 C   0  0  0  0  0  0  0  0  0  0  0  0
    9.7955  -14.3761    0.0000 C   0  0  0  0  0  0  0  0  0  0  0  0
  1  2  1  0  0  0  0
  1 18  1  0  0  0  0
  2  3  1  0  0  0  0
  3  4  1  0  0  0  0
  3  8  1  0  0  0  0
  4  5  1  0  0  0  0
  5  6  1  0  0  0  0
  6  7  2  0  0  0  0
  6  9  1  0  0  0  0
  7  8  1  0  0  0  0
  9 10  2  0  0  0  0
  9 17  1  0  0  0  0
 10 11  1  0  0  0  0
 11 12  1  0  0  0  0
 12 13  2  0  0  0  0
 12 17  1  0  0  0  0
 13 14  1  0  0  0  0
 14 15  2  0  0  0  0
 15 16  1  0  0  0  0
 16 17  2  0  0  0  0
 18 19  1  0  0  0  0
 19 20  2  0  0  0  0
 19 24  1  0  0  0  0
 20 21  1  0  0  0  0
 21 22  2  0  0  0  0
 22 23  1  0  0  0  0
 23 24  2  0  0  0  0
M  END
$$$$
