Z1665798906
 OpenBabel06162400282D

 26 29  0  0  0  0  0  0  0  0999 V2000
   10.4496  -12.1698    0.0000 O   0  0  0  0  0  0  0  0  0  0  0  0
    8.9823  -12.4817    0.0000 C   0  0  3  0  0  0  0  0  0  0  0  0
    8.5188  -13.9082    0.0000 C   0  0  0  0  0  0  0  0  0  0  0  0
    9.5225  -15.0230    0.0000 C   0  0  0  0  0  0  0  0  0  0  0  0
    9.0590  -16.4497    0.0000 C   0  0  0  0  0  0  0  0  0  0  0  0
   10.0627  -17.5643    0.0000 C   0  0  0  0  0  0  0  0  0  0  0  0
    9.5992  -18.9910    0.0000 C   0  0  0  0  0  0  0  0  0  0  0  0
    8.1319  -19.3028    0.0000 C   0  0  0  0  0  0  0  0  0  0  0  0
    7.1284  -18.1881    0.0000 C   0  0  0  0  0  0  0  0  0  0  0  0
    7.5919  -16.7615    0.0000 C   0  0  0  0  0  0  0  0  0  0  0  0
    7.9786  -11.3669    0.0000 C   0  0  0  0  0  0  0  0  0  0  0  0
    8.4423   -9.9403    0.0000 N   0  0  0  0  0  0  0  0  0  0  0  0
    7.4386   -8.8256    0.0000 C   0  0  0  0  0  0  0  0  0  0  0  0
    7.9021   -7.3990    0.0000 C   0  0  0  0  0  0  0  0  0  0  0  0
    9.3692   -7.0870    0.0000 C   0  0  3  0  0  0  0  0  0  0  0  0
   10.3730   -8.2020    0.0000 C   0  0  0  0  0  0  0  0  0  0  0  0
    9.9094   -9.6285    0.0000 C   0  0  0  0  0  0  0  0  0  0  0  0
    9.8328   -5.6605    0.0000 C   0  0  0  0  0  0  0  0  0  0  0  0
    8.9510   -4.4470    0.0000 N   0  0  0  0  0  0  0  0  0  0  0  0
    9.8328   -3.2333    0.0000 N   0  0  0  0  0  0  0  0  0  0  0  0
   11.2594   -3.6970    0.0000 C   0  0  0  0  0  0  0  0  0  0  0  0
   12.5585   -2.9472    0.0000 C   0  0  0  0  0  0  0  0  0  0  0  0
   13.8574   -3.6970    0.0000 C   0  0  0  0  0  0  0  0  0  0  0  0
   13.8574   -5.1970    0.0000 C   0  0  0  0  0  0  0  0  0  0  0  0
   12.5585   -5.9470    0.0000 C   0  0  0  0  0  0  0  0  0  0  0  0
   11.2594   -5.1970    0.0000 N   0  0  0  0  0  0  0  0  0  0  0  0
  1  2  1  0  0  0  0
  2  3  1  0  0  0  0
  2 11  1  0  0  0  0
  3  4  1  0  0  0  0
  4  5  1  0  0  0  0
  5  6  2  0  0  0  0
  5 10  1  0  0  0  0
  6  7  1  0  0  0  0
  7  8  2  0  0  0  0
  8  9  1  0  0  0  0
  9 10  2  0  0  0  0
 11 12  1  0  0  0  0
 12 13  1  0  0  0  0
 12 17  1  0  0  0  0
 13 14  1  0  0  0  0
 14 15  1  0  0  0  0
 15 16  1  0  0  0  0
 15 18  1  0  0  0  0
 16 17  1  0  0  0  0
 18 19  2  0  0  0  0
 18 26  1  0  0  0  0
 19 20  1  0  0  0  0
 20 21  2  0  0  0  0
 21 22  1  0  0  0  0
 21 26  1  0  0  0  0
 22 23  2  0  0  0  0
 23 24  1  0  0  0  0
 24 25  2  0  0  0  0
 25 26  1  0  0  0  0
M  END
$$$$
