Z4430418526
 OpenBabel06162400232D

 20 22  0  0  0  0  0  0  0  0999 V2000
   14.1207   -5.5643    0.0000 C   0  0  0  0  0  0  0  0  0  0  0  0
   15.4198   -6.3143    0.0000 C   0  0  3  0  0  0  0  0  0  0  0  0
   16.7188   -5.5643    0.0000 C   0  0  0  0  0  0  0  0  0  0  0  0
   18.0177   -6.3143    0.0000 C   0  0  0  0  0  0  0  0  0  0  0  0
   18.0177   -7.8142    0.0000 C   0  0  3  0  0  0  0  0  0  0  0  0
   19.3168   -8.5642    0.0000 C   0  0  0  0  0  0  0  0  0  0  0  0
   19.3168  -10.0642    0.0000 N   0  0  0  0  0  0  0  0  0  0  0  0
   20.3776  -11.1248    0.0000 C   0  0  0  0  0  0  0  0  0  0  0  0
   19.3168  -12.1856    0.0000 C   0  0  3  0  0  0  0  0  0  0  0  0
   19.3168  -13.6856    0.0000 C   0  0  0  0  0  0  0  0  0  0  0  0
   18.0177  -14.4357    0.0000 C   0  0  0  0  0  0  0  0  0  0  0  0
   18.0177  -15.9357    0.0000 C   0  0  0  0  0  0  0  0  0  0  0  0
   16.7188  -16.6857    0.0000 C   0  0  0  0  0  0  0  0  0  0  0  0
   15.4198  -15.9357    0.0000 C   0  0  0  0  0  0  0  0  0  0  0  0
   14.1207  -16.6857    0.0000 F   0  0  0  0  0  0  0  0  0  0  0  0
   15.4198  -14.4357    0.0000 C   0  0  0  0  0  0  0  0  0  0  0  0
   16.7188  -13.6856    0.0000 C   0  0  0  0  0  0  0  0  0  0  0  0
   18.2563  -11.1248    0.0000 C   0  0  0  0  0  0  0  0  0  0  0  0
   16.7188   -8.5642    0.0000 C   0  0  0  0  0  0  0  0  0  0  0  0
   15.4198   -7.8142    0.0000 C   0  0  0  0  0  0  0  0  0  0  0  0
  1  2  1  0  0  0  0
  2  3  1  0  0  0  0
  2 20  1  0  0  0  0
  3  4  1  0  0  0  0
  4  5  1  0  0  0  0
  5  6  1  0  0  0  0
  5 19  1  0  0  0  0
  6  7  1  0  0  0  0
  7  8  1  0  0  0  0
  7 18  1  0  0  0  0
  8  9  1  0  0  0  0
  9 10  1  0  0  0  0
  9 18  1  0  0  0  0
 10 11  1  0  0  0  0
 11 12  2  0  0  0  0
 11 17  1  0  0  0  0
 12 13  1  0  0  0  0
 13 14  2  0  0  0  0
 14 15  1  0  0  0  0
 14 16  1  0  0  0  0
 16 17  2  0  0  0  0
 19 20  1  0  0  0  0
M  END
$$$$
