Z4430417979
  MJ210100                      

 19 21  0  0  0  0  0  0  0  0999 V2000
   -0.9237    1.1166    0.0000 C   0  0  0  0  0  0  0  0  0  0  0  0
   -0.2092    0.7041    0.0000 C   0  0  0  0  0  0  0  0  0  0  0  0
    0.5052    1.1166    0.0000 C   0  0  0  0  0  0  0  0  0  0  0  0
    1.2196    0.7041    0.0000 C   0  0  0  0  0  0  0  0  0  0  0  0
    1.2196   -0.1208    0.0000 C   0  0  0  0  0  0  0  0  0  0  0  0
    1.9341   -0.5333    0.0000 C   0  0  0  0  0  0  0  0  0  0  0  0
    1.9341   -1.3583    0.0000 N   0  0  0  0  0  0  0  0  0  0  0  0
    2.5175   -1.9416    0.0000 C   0  0  0  0  0  0  0  0  0  0  0  0
    1.9341   -2.5250    0.0000 C   0  0  0  0  0  0  0  0  0  0  0  0
    1.9341   -3.3500    0.0000 C   0  0  0  0  0  0  0  0  0  0  0  0
    1.2196   -3.7625    0.0000 C   0  0  0  0  0  0  0  0  0  0  0  0
    1.2196   -4.5875    0.0000 C   0  0  0  0  0  0  0  0  0  0  0  0
    0.5052   -5.0000    0.0000 C   0  0  0  0  0  0  0  0  0  0  0  0
   -0.2092   -4.5875    0.0000 C   0  0  0  0  0  0  0  0  0  0  0  0
   -0.2092   -3.7625    0.0000 C   0  0  0  0  0  0  0  0  0  0  0  0
    0.5052   -3.3500    0.0000 C   0  0  0  0  0  0  0  0  0  0  0  0
    1.3508   -1.9416    0.0000 C   0  0  0  0  0  0  0  0  0  0  0  0
    0.5052   -0.5333    0.0000 C   0  0  0  0  0  0  0  0  0  0  0  0
   -0.2092   -0.1208    0.0000 C   0  0  0  0  0  0  0  0  0  0  0  0
  1  2  1  0  0  0  0
  2  3  1  0  0  0  0
  3  4  1  0  0  0  0
  4  5  1  0  0  0  0
  5  6  1  0  0  0  0
  6  7  1  0  0  0  0
  7  8  1  0  0  0  0
  8  9  1  0  0  0  0
  9 10  1  0  0  0  0
 10 11  1  0  0  0  0
 11 12  2  0  0  0  0
 12 13  1  0  0  0  0
 13 14  2  0  0  0  0
 14 15  1  0  0  0  0
 15 16  2  0  0  0  0
 11 16  1  0  0  0  0
  9 17  1  0  0  0  0
  7 17  1  0  0  0  0
  5 18  1  0  0  0  0
 18 19  1  0  0  0  0
  2 19  1  0  0  0  0
M  END
