Z4430417979
 OpenBabel06162400242D

 19 21  0  0  0  0  0  0  0  0999 V2000
   11.5225   -5.5642    0.0000 C   0  0  0  0  0  0  0  0  0  0  0  0
   12.8217   -6.3143    0.0000 C   0  0  3  0  0  0  0  0  0  0  0  0
   14.1206   -5.5642    0.0000 C   0  0  0  0  0  0  0  0  0  0  0  0
   15.4196   -6.3143    0.0000 C   0  0  0  0  0  0  0  0  0  0  0  0
   15.4196   -7.8141    0.0000 C   0  0  3  0  0  0  0  0  0  0  0  0
   16.7188   -8.5642    0.0000 C   0  0  0  0  0  0  0  0  0  0  0  0
   16.7188  -10.0642    0.0000 N   0  0  0  0  0  0  0  0  0  0  0  0
   17.7795  -11.1248    0.0000 C   0  0  0  0  0  0  0  0  0  0  0  0
   16.7188  -12.1856    0.0000 C   0  0  3  0  0  0  0  0  0  0  0  0
   16.7188  -13.6856    0.0000 C   0  0  0  0  0  0  0  0  0  0  0  0
   15.4196  -14.4357    0.0000 C   0  0  0  0  0  0  0  0  0  0  0  0
   15.4196  -15.9357    0.0000 C   0  0  0  0  0  0  0  0  0  0  0  0
   14.1206  -16.6858    0.0000 C   0  0  0  0  0  0  0  0  0  0  0  0
   12.8217  -15.9357    0.0000 C   0  0  0  0  0  0  0  0  0  0  0  0
   12.8217  -14.4357    0.0000 C   0  0  0  0  0  0  0  0  0  0  0  0
   14.1206  -13.6856    0.0000 C   0  0  0  0  0  0  0  0  0  0  0  0
   15.6582  -11.1248    0.0000 C   0  0  0  0  0  0  0  0  0  0  0  0
   14.1206   -8.5642    0.0000 C   0  0  0  0  0  0  0  0  0  0  0  0
   12.8217   -7.8141    0.0000 C   0  0  0  0  0  0  0  0  0  0  0  0
  1  2  1  0  0  0  0
  2  3  1  0  0  0  0
  2 19  1  0  0  0  0
  3  4  1  0  0  0  0
  4  5  1  0  0  0  0
  5  6  1  0  0  0  0
  5 18  1  0  0  0  0
  6  7  1  0  0  0  0
  7  8  1  0  0  0  0
  7 17  1  0  0  0  0
  8  9  1  0  0  0  0
  9 10  1  0  0  0  0
  9 17  1  0  0  0  0
 10 11  1  0  0  0  0
 11 12  2  0  0  0  0
 11 16  1  0  0  0  0
 12 13  1  0  0  0  0
 13 14  2  0  0  0  0
 14 15  1  0  0  0  0
 15 16  2  0  0  0  0
 18 19  1  0  0  0  0
M  END
$$$$
