Z4493929234
  MJ210100                      

 25 28  0  0  0  0  0  0  0  0999 V2000
   -0.3909   -6.0731    0.0000 C   0  0  0  0  0  0  0  0  0  0  0  0
   -0.9429   -5.4600    0.0000 C   0  0  0  0  0  0  0  0  0  0  0  0
   -0.6880   -4.6753    0.0000 C   0  0  0  0  0  0  0  0  0  0  0  0
    0.1189   -4.5038    0.0000 C   0  0  0  0  0  0  0  0  0  0  0  0
    0.3739   -3.7192    0.0000 N   0  0  0  0  0  0  0  0  0  0  0  0
   -0.1781   -3.1061    0.0000 C   0  0  0  0  0  0  0  0  0  0  0  0
    0.0768   -2.3215    0.0000 C   0  0  0  0  0  0  0  0  0  0  0  0
    0.8837   -2.1499    0.0000 C   0  0  0  0  0  0  0  0  0  0  0  0
    1.4358   -2.7631    0.0000 C   0  0  0  0  0  0  0  0  0  0  0  0
    1.1808   -3.5477    0.0000 C   0  0  0  0  0  0  0  0  0  0  0  0
    1.1387   -1.3653    0.0000 C   0  0  0  0  0  0  0  0  0  0  0  0
    0.6537   -0.6979    0.0000 C   0  0  0  0  0  0  0  0  0  0  0  0
    1.1387   -0.0304    0.0000 N   0  0  0  0  0  0  0  0  0  0  0  0
    1.9233   -0.2854    0.0000 C   0  0  0  0  0  0  0  0  0  0  0  0
    2.6378    0.1270    0.0000 N   0  0  0  0  0  0  0  0  0  0  0  0
    3.3522   -0.2854    0.0000 C   0  0  0  0  0  0  0  0  0  0  0  0
    3.3522   -1.1104    0.0000 C   0  0  0  0  0  0  0  0  0  0  0  0
    2.6378   -1.5229    0.0000 C   0  0  0  0  0  0  0  0  0  0  0  0
    1.9233   -1.1104    0.0000 C   0  0  0  0  0  0  0  0  0  0  0  0
   -1.7499   -5.6315    0.0000 C   0  0  0  0  0  0  0  0  0  0  0  0
   -2.0048   -6.4161    0.0000 C   0  0  0  0  0  0  0  0  0  0  0  0
   -2.8118   -6.5876    0.0000 C   0  0  0  0  0  0  0  0  0  0  0  0
   -3.3638   -5.9746    0.0000 C   0  0  0  0  0  0  0  0  0  0  0  0
   -3.1089   -5.1900    0.0000 C   0  0  0  0  0  0  0  0  0  0  0  0
   -2.3019   -5.0184    0.0000 C   0  0  0  0  0  0  0  0  0  0  0  0
  1  2  1  0  0  0  0
  2  3  1  0  0  0  0
  3  4  1  0  0  0  0
  4  5  1  0  0  0  0
  5  6  1  0  0  0  0
  6  7  1  0  0  0  0
  7  8  1  0  0  0  0
  8  9  2  0  0  0  0
  9 10  1  0  0  0  0
  5 10  1  0  0  0  0
  8 11  1  0  0  0  0
 11 12  2  0  0  0  0
 12 13  1  0  0  0  0
 13 14  1  0  0  0  0
 14 15  2  0  0  0  0
 15 16  1  0  0  0  0
 16 17  2  0  0  0  0
 17 18  1  0  0  0  0
 18 19  2  0  0  0  0
 11 19  1  0  0  0  0
 14 19  1  0  0  0  0
  2 20  1  0  0  0  0
 20 21  2  0  0  0  0
 21 22  1  0  0  0  0
 22 23  2  0  0  0  0
 23 24  1  0  0  0  0
 24 25  2  0  0  0  0
 20 25  1  0  0  0  0
M  END
