Z4510628128
 OpenBabel06162400242D

 21 23  0  0  1  0  0  0  0  0999 V2000
    4.7294   -6.0919    0.0000 C   0  0  0  0  0  0  0  0  0  0  0  0
    6.2253   -6.2041    0.0000 C   0  0  3  0  0  0  0  0  0  0  0  0
    6.9753   -4.9050    0.0000 C   0  0  0  0  0  0  0  0  0  0  0  0
    8.4585   -4.6813    0.0000 C   0  0  0  0  0  0  0  0  0  0  0  0
    9.5582   -5.7017    0.0000 C   0  0  0  0  0  0  0  0  0  0  0  0
    9.4460   -7.1975    0.0000 C   0  0  3  0  0  0  0  0  0  0  0  0
    8.2067   -8.0424    0.0000 C   0  0  0  0  0  0  0  0  0  0  0  0
    6.7733   -7.6004    0.0000 C   0  0  0  0  0  0  0  0  0  0  0  0
   10.7451   -7.9475    0.0000 N   0  0  0  0  0  0  0  0  0  0  0  0
   10.7451   -9.4475    0.0000 C   0  0  1  0  0  0  0  0  0  0  0  0
   11.8056  -10.5081    0.0000 C   0  0  0  0  0  0  0  0  0  0  0  0
   10.7451  -11.5688    0.0000 C   0  0  1  0  0  0  0  0  0  0  0  0
    9.6844  -10.5081    0.0000 C   0  0  0  0  0  0  0  0  0  0  0  0
   10.7451  -13.0688    0.0000 C   0  0  0  0  0  0  0  0  0  0  0  0
   12.0440  -13.8186    0.0000 C   0  0  0  0  0  0  0  0  0  0  0  0
   12.0440  -15.3187    0.0000 C   0  0  0  0  0  0  0  0  0  0  0  0
   10.7451  -16.0687    0.0000 C   0  0  0  0  0  0  0  0  0  0  0  0
   10.7451  -17.5687    0.0000 F   0  0  0  0  0  0  0  0  0  0  0  0
    9.4460  -15.3187    0.0000 C   0  0  0  0  0  0  0  0  0  0  0  0
    8.1469  -16.0687    0.0000 Br  0  0  0  0  0  0  0  0  0  0  0  0
    9.4460  -13.8186    0.0000 C   0  0  0  0  0  0  0  0  0  0  0  0
  1  2  1  0  0  0  0
  2  3  1  0  0  0  0
  2  8  1  0  0  0  0
  3  4  1  0  0  0  0
  4  5  1  0  0  0  0
  5  6  1  0  0  0  0
  6  7  1  0  0  0  0
  6  9  1  0  0  0  0
  7  8  1  0  0  0  0
 10  9  1  1  0  0  0
 10 11  1  0  0  0  0
 10 13  1  0  0  0  0
 12 11  1  0  0  0  0
 12 13  1  0  0  0  0
 12 14  1  6  0  0  0
 14 15  2  0  0  0  0
 14 21  1  0  0  0  0
 15 16  1  0  0  0  0
 16 17  2  0  0  0  0
 17 18  1  0  0  0  0
 17 19  1  0  0  0  0
 19 20  1  0  0  0  0
 19 21  2  0  0  0  0
M  END
$$$$
