Z4510628128
  MJ210100                      

 21 23  0  0  0  0  0  0  0  0999 V2000
    0.0477    4.0198    0.0000 C   0  0  0  0  0  0  0  0  0  0  0  0
    0.8704    3.9581    0.0000 C   0  0  0  0  0  0  0  0  0  0  0  0
    1.2829    4.6726    0.0000 C   0  0  0  0  0  0  0  0  0  0  0  0
    2.0987    4.7956    0.0000 C   0  0  0  0  0  0  0  0  0  0  0  0
    2.7035    4.2344    0.0000 C   0  0  0  0  0  0  0  0  0  0  0  0
    2.6418    3.4117    0.0000 C   0  0  0  0  0  0  0  0  0  0  0  0
    1.9602    2.9470    0.0000 C   0  0  0  0  0  0  0  0  0  0  0  0
    1.1718    3.1901    0.0000 C   0  0  0  0  0  0  0  0  0  0  0  0
    3.3563    2.9992    0.0000 N   0  0  0  0  0  0  0  0  0  0  0  0
    3.3563    2.1742    0.0000 C   0  0  0  0  0  0  0  0  0  0  0  0
    3.9396    1.5909    0.0000 C   0  0  0  0  0  0  0  0  0  0  0  0
    3.3563    1.0075    0.0000 C   0  0  0  0  0  0  0  0  0  0  0  0
    2.7729    1.5909    0.0000 C   0  0  0  0  0  0  0  0  0  0  0  0
    3.3563    0.1825    0.0000 C   0  0  0  0  0  0  0  0  0  0  0  0
    4.0707   -0.2299    0.0000 C   0  0  0  0  0  0  0  0  0  0  0  0
    4.0707   -1.0549    0.0000 C   0  0  0  0  0  0  0  0  0  0  0  0
    3.3563   -1.4674    0.0000 C   0  0  0  0  0  0  0  0  0  0  0  0
    3.3563   -2.2924    0.0000 F   0  0  0  0  0  0  0  0  0  0  0  0
    2.6418   -1.0549    0.0000 C   0  0  0  0  0  0  0  0  0  0  0  0
    1.9273   -1.4674    0.0000 Br  0  0  0  0  0  0  0  0  0  0  0  0
    2.6418   -0.2299    0.0000 C   0  0  0  0  0  0  0  0  0  0  0  0
  1  2  1  0  0  0  0
  2  3  1  0  0  0  0
  3  4  1  0  0  0  0
  4  5  1  0  0  0  0
  5  6  1  0  0  0  0
  6  7  1  0  0  0  0
  7  8  1  0  0  0  0
  2  8  1  0  0  0  0
  6  9  1  0  0  0  0
 10  9  1  1  0  0  0
 10 11  1  0  0  0  0
 12 11  1  0  0  0  0
 12 13  1  0  0  0  0
 10 13  1  0  0  0  0
 12 14  1  6  0  0  0
 14 15  2  0  0  0  0
 15 16  1  0  0  0  0
 16 17  2  0  0  0  0
 17 18  1  0  0  0  0
 17 19  1  0  0  0  0
 19 20  1  0  0  0  0
 19 21  2  0  0  0  0
 14 21  1  0  0  0  0
M  END
