Z4510628191
 OpenBabel06162400262D

 25 27  0  0  0  0  0  0  0  0999 V2000
   13.1680  -11.3335    0.0000 C   0  0  0  0  0  0  0  0  0  0  0  0
   13.9180  -12.6326    0.0000 C   0  0  0  0  0  0  0  0  0  0  0  0
   14.6680  -13.9315    0.0000 C   0  0  0  0  0  0  0  0  0  0  0  0
   15.2171  -11.8825    0.0000 N   0  0  0  0  0  0  0  0  0  0  0  0
   16.5160  -12.6326    0.0000 C   0  0  0  0  0  0  0  0  0  0  0  0
   17.8149  -11.8825    0.0000 C   0  0  0  0  0  0  0  0  0  0  0  0
   17.8149  -10.3825    0.0000 C   0  0  0  0  0  0  0  0  0  0  0  0
   19.1140   -9.6325    0.0000 C   0  0  0  0  0  0  0  0  0  0  0  0
   19.1140   -8.1325    0.0000 Br  0  0  0  0  0  0  0  0  0  0  0  0
   20.4129  -10.3825    0.0000 C   0  0  0  0  0  0  0  0  0  0  0  0
   21.7120   -9.6325    0.0000 O   0  0  0  0  0  0  0  0  0  0  0  0
   23.0111  -10.3825    0.0000 C   0  0  0  0  0  0  0  0  0  0  0  0
   23.0111  -11.8825    0.0000 C   0  0  0  0  0  0  0  0  0  0  0  0
   21.7120  -12.6326    0.0000 O   0  0  0  0  0  0  0  0  0  0  0  0
   20.4129  -11.8825    0.0000 C   0  0  0  0  0  0  0  0  0  0  0  0
   19.1140  -12.6326    0.0000 C   0  0  0  0  0  0  0  0  0  0  0  0
   12.6191  -13.3826    0.0000 C   0  0  3  0  0  0  0  0  0  0  0  0
   12.6191  -14.8826    0.0000 O   0  0  0  0  0  0  0  0  0  0  0  0
   11.3200  -12.6326    0.0000 C   0  0  0  0  0  0  0  0  0  0  0  0
   10.0209  -13.3826    0.0000 C   0  0  0  0  0  0  0  0  0  0  0  0
    8.7218  -12.6326    0.0000 C   0  0  0  0  0  0  0  0  0  0  0  0
    8.7218  -11.1325    0.0000 C   0  0  0  0  0  0  0  0  0  0  0  0
    7.4227  -10.3825    0.0000 Br  0  0  0  0  0  0  0  0  0  0  0  0
   10.0209  -10.3825    0.0000 C   0  0  0  0  0  0  0  0  0  0  0  0
   11.3200  -11.1325    0.0000 C   0  0  0  0  0  0  0  0  0  0  0  0
  1  2  1  0  0  0  0
  2  3  1  0  0  0  0
  2  4  1  0  0  0  0
  2 17  1  0  0  0  0
  4  5  1  0  0  0  0
  5  6  1  0  0  0  0
  6  7  2  0  0  0  0
  6 16  1  0  0  0  0
  7  8  1  0  0  0  0
  8  9  1  0  0  0  0
  8 10  2  0  0  0  0
 10 11  1  0  0  0  0
 10 15  1  0  0  0  0
 11 12  1  0  0  0  0
 12 13  1  0  0  0  0
 13 14  1  0  0  0  0
 14 15  1  0  0  0  0
 15 16  2  0  0  0  0
 17 18  1  0  0  0  0
 17 19  1  0  0  0  0
 19 20  2  0  0  0  0
 19 25  1  0  0  0  0
 20 21  1  0  0  0  0
 21 22  2  0  0  0  0
 22 23  1  0  0  0  0
 22 24  1  0  0  0  0
 24 25  2  0  0  0  0
M  END
$$$$
