Z4510627652
 OpenBabel06162400262D

 23 25  0  0  0  0  0  0  0  0999 V2000
    6.8479  -17.1251    0.0000 C   0  0  0  0  0  0  0  0  0  0  0  0
    6.8479  -15.6250    0.0000 C   0  0  0  0  0  0  0  0  0  0  0  0
    5.5490  -14.8750    0.0000 C   0  0  0  0  0  0  0  0  0  0  0  0
    5.5490  -13.3750    0.0000 C   0  0  0  0  0  0  0  0  0  0  0  0
    6.8479  -12.6250    0.0000 C   0  0  0  0  0  0  0  0  0  0  0  0
    6.8479  -11.1250    0.0000 C   0  0  0  0  0  0  0  0  0  0  0  0
    8.1470  -10.3750    0.0000 C   0  0  0  0  0  0  0  0  0  0  0  0
    8.8970  -11.6739    0.0000 C   0  0  0  0  0  0  0  0  0  0  0  0
    7.3970   -9.0759    0.0000 C   0  0  0  0  0  0  0  0  0  0  0  0
    9.4460   -9.6250    0.0000 N   0  0  0  0  0  0  0  0  0  0  0  0
    9.4460   -8.1250    0.0000 C   0  0  0  0  0  0  0  0  0  0  0  0
   10.7449   -7.3750    0.0000 C   0  0  0  0  0  0  0  0  0  0  0  0
   10.7449   -5.8750    0.0000 C   0  0  0  0  0  0  0  0  0  0  0  0
   12.0440   -5.1249    0.0000 C   0  0  0  0  0  0  0  0  0  0  0  0
   13.3429   -5.8750    0.0000 C   0  0  0  0  0  0  0  0  0  0  0  0
   14.6420   -5.1249    0.0000 O   0  0  0  0  0  0  0  0  0  0  0  0
   15.9411   -5.8750    0.0000 C   0  0  0  0  0  0  0  0  0  0  0  0
   15.9411   -7.3750    0.0000 C   0  0  0  0  0  0  0  0  0  0  0  0
   14.6420   -8.1250    0.0000 O   0  0  0  0  0  0  0  0  0  0  0  0
   13.3429   -7.3750    0.0000 C   0  0  0  0  0  0  0  0  0  0  0  0
   12.0440   -8.1250    0.0000 C   0  0  0  0  0  0  0  0  0  0  0  0
    8.1470  -13.3750    0.0000 C   0  0  0  0  0  0  0  0  0  0  0  0
    8.1470  -14.8750    0.0000 C   0  0  0  0  0  0  0  0  0  0  0  0
  1  2  1  0  0  0  0
  2  3  2  0  0  0  0
  2 23  1  0  0  0  0
  3  4  1  0  0  0  0
  4  5  2  0  0  0  0
  5  6  1  0  0  0  0
  5 22  1  0  0  0  0
  6  7  1  0  0  0  0
  7  8  1  0  0  0  0
  7  9  1  0  0  0  0
  7 10  1  0  0  0  0
 10 11  1  0  0  0  0
 11 12  1  0  0  0  0
 12 13  2  0  0  0  0
 12 21  1  0  0  0  0
 13 14  1  0  0  0  0
 14 15  2  0  0  0  0
 15 16  1  0  0  0  0
 15 20  1  0  0  0  0
 16 17  1  0  0  0  0
 17 18  1  0  0  0  0
 18 19  1  0  0  0  0
 19 20  1  0  0  0  0
 20 21  2  0  0  0  0
 22 23  2  0  0  0  0
M  END
$$$$
