Z4634276811
  MJ210100                      

 23 24  0  0  0  0  0  0  0  0999 V2000
    0.0000    0.0000    0.0000 Cl  0  0  0  0  0  0  0  0  0  0  0  0
    2.3571    1.5709    0.0000 C   0  0  0  0  0  0  0  0  0  0  0  0
    3.1696    1.7142    0.0000 C   0  0  0  0  0  0  0  0  0  0  0  0
    3.4517    2.4894    0.0000 C   0  0  0  0  0  0  0  0  0  0  0  0
    4.2642    2.6327    0.0000 C   0  0  0  0  0  0  0  0  0  0  0  0
    4.7945    2.0007    0.0000 C   0  0  0  0  0  0  0  0  0  0  0  0
    5.3248    2.6327    0.0000 O   0  0  0  0  0  0  0  0  0  0  0  0
    5.5090    1.5882    0.0000 C   0  0  0  0  0  0  0  0  0  0  0  0
    5.5090    0.7632    0.0000 N   0  0  0  0  0  0  0  0  0  0  0  0
    6.0923    0.1798    0.0000 C   0  0  0  0  0  0  0  0  0  0  0  0
    5.5090   -0.4035    0.0000 C   0  0  0  0  0  0  0  0  0  0  0  0
    5.5090   -1.2285    0.0000 C   0  0  0  0  0  0  0  0  0  0  0  0
    4.7945   -1.6410    0.0000 C   0  0  0  0  0  0  0  0  0  0  0  0
    4.7945   -2.4660    0.0000 C   0  0  0  0  0  0  0  0  0  0  0  0
    4.0800   -2.8785    0.0000 C   0  0  0  0  0  0  0  0  0  0  0  0
    3.3656   -2.4660    0.0000 C   0  0  0  0  0  0  0  0  0  0  0  0
    2.6511   -2.8785    0.0000 F   0  0  0  0  0  0  0  0  0  0  0  0
    3.3656   -1.6410    0.0000 C   0  0  0  0  0  0  0  0  0  0  0  0
    2.6511   -1.2285    0.0000 F   0  0  0  0  0  0  0  0  0  0  0  0
    4.0800   -1.2285    0.0000 C   0  0  0  0  0  0  0  0  0  0  0  0
    4.9256    0.1798    0.0000 C   0  0  0  0  0  0  0  0  0  0  0  0
    4.5123    1.2255    0.0000 C   0  0  0  0  0  0  0  0  0  0  0  0
    3.6999    1.0822    0.0000 C   0  0  0  0  0  0  0  0  0  0  0  0
  3  2  1  1  0  0  0
  3  4  1  0  0  0  0
  4  5  1  0  0  0  0
  6  5  1  0  0  0  0
  6  7  1  1  0  0  0
  6  8  1  6  0  0  0
  8  9  1  0  0  0  0
  9 10  1  0  0  0  0
 10 11  1  0  0  0  0
 11 12  1  0  0  0  0
 12 13  1  0  0  0  0
 13 14  2  0  0  0  0
 14 15  1  0  0  0  0
 15 16  2  0  0  0  0
 16 17  1  0  0  0  0
 16 18  1  0  0  0  0
 18 19  1  0  0  0  0
 18 20  2  0  0  0  0
 13 20  1  0  0  0  0
 11 21  1  0  0  0  0
  9 21  1  0  0  0  0
  6 22  1  0  0  0  0
 22 23  1  0  0  0  0
  3 23  1  0  0  0  0
M  END
