Z4634276811
 OpenBabel06162400282D

 23 24  0  0  1  0  0  0  0  0999 V2000
   21.9683  -17.6158    0.0000 Cl  0  0  0  0  0  0  0  0  0  0  0  0
   26.2539  -14.7596    0.0000 C   0  0  0  0  0  0  0  0  0  0  0  0
   27.7312  -14.4991    0.0000 C   0  0  1  0  0  0  0  0  0  0  0  0
   28.2441  -13.0896    0.0000 C   0  0  0  0  0  0  0  0  0  0  0  0
   29.7214  -12.8291    0.0000 C   0  0  0  0  0  0  0  0  0  0  0  0
   30.6856  -13.9782    0.0000 C   0  0  2  0  0  0  0  0  0  0  0  0
   31.6498  -12.8291    0.0000 O   0  0  0  0  0  0  0  0  0  0  0  0
   31.9847  -14.7282    0.0000 C   0  0  0  0  0  0  0  0  0  0  0  0
   31.9847  -16.2282    0.0000 N   0  0  0  0  0  0  0  0  0  0  0  0
   33.0452  -17.2889    0.0000 C   0  0  0  0  0  0  0  0  0  0  0  0
   31.9847  -18.3495    0.0000 C   0  0  3  0  0  0  0  0  0  0  0  0
   31.9847  -19.8495    0.0000 C   0  0  0  0  0  0  0  0  0  0  0  0
   30.6856  -20.5995    0.0000 C   0  0  0  0  0  0  0  0  0  0  0  0
   30.6856  -22.0995    0.0000 C   0  0  0  0  0  0  0  0  0  0  0  0
   29.3865  -22.8495    0.0000 C   0  0  0  0  0  0  0  0  0  0  0  0
   28.0876  -22.0995    0.0000 C   0  0  0  0  0  0  0  0  0  0  0  0
   26.7885  -22.8495    0.0000 F   0  0  0  0  0  0  0  0  0  0  0  0
   28.0876  -20.5995    0.0000 C   0  0  0  0  0  0  0  0  0  0  0  0
   26.7885  -19.8495    0.0000 F   0  0  0  0  0  0  0  0  0  0  0  0
   29.3865  -19.8495    0.0000 C   0  0  0  0  0  0  0  0  0  0  0  0
   30.9240  -17.2889    0.0000 C   0  0  0  0  0  0  0  0  0  0  0  0
   30.1725  -15.3876    0.0000 C   0  0  0  0  0  0  0  0  0  0  0  0
   28.6954  -15.6482    0.0000 C   0  0  0  0  0  0  0  0  0  0  0  0
  3  2  1  1  0  0  0
  3  4  1  0  0  0  0
  3 23  1  0  0  0  0
  4  5  1  0  0  0  0
  6  5  1  0  0  0  0
  6  7  1  1  0  0  0
  6  8  1  0  0  0  0
  6 22  1  0  0  0  0
  8  9  1  0  0  0  0
  9 10  1  0  0  0  0
  9 21  1  0  0  0  0
 10 11  1  0  0  0  0
 11 12  1  0  0  0  0
 11 21  1  0  0  0  0
 12 13  1  0  0  0  0
 13 14  2  0  0  0  0
 13 20  1  0  0  0  0
 14 15  1  0  0  0  0
 15 16  2  0  0  0  0
 16 17  1  0  0  0  0
 16 18  1  0  0  0  0
 18 19  1  0  0  0  0
 18 20  2  0  0  0  0
 22 23  1  0  0  0  0
M  END
$$$$
