Z4857158944
 OpenBabel06162400252D

 32 33  0  0  0  0  0  0  0  0999 V2000
   10.0208  -17.0436    0.0000 C   0  0  0  0  0  0  0  0  0  0  0  0
   10.0208  -15.5436    0.0000 N   0  0  0  0  0  0  0  0  0  0  0  0
    8.7219  -14.7936    0.0000 C   0  0  0  0  0  0  0  0  0  0  0  0
    7.4228  -15.5436    0.0000 O   0  0  0  0  0  0  0  0  0  0  0  0
    8.7219  -13.2936    0.0000 C   0  0  0  0  0  0  0  0  0  0  0  0
   10.0208  -12.5436    0.0000 C   0  0  0  0  0  0  0  0  0  0  0  0
   11.3200  -13.2936    0.0000 C   0  0  0  0  0  0  0  0  0  0  0  0
   12.6191  -12.5436    0.0000 C   0  0  0  0  0  0  0  0  0  0  0  0
   13.9182  -13.2936    0.0000 C   0  0  0  0  0  0  0  0  0  0  0  0
   15.2171  -12.5436    0.0000 C   0  0  0  0  0  0  0  0  0  0  0  0
   16.5160  -13.2936    0.0000 N   0  0  0  0  0  0  0  0  0  0  0  0
   17.8149  -12.5436    0.0000 C   0  0  0  0  0  0  0  0  0  0  0  0
   18.5649  -13.8425    0.0000 C   0  0  0  0  0  0  0  0  0  0  0  0
   17.0649  -11.2446    0.0000 C   0  0  0  0  0  0  0  0  0  0  0  0
   19.1140  -11.7935    0.0000 C   0  0  3  0  0  0  0  0  0  0  0  0
   19.1140  -10.2935    0.0000 O   0  0  0  0  0  0  0  0  0  0  0  0
   20.4132  -12.5436    0.0000 C   0  0  0  0  0  0  0  0  0  0  0  0
   21.7123  -11.7935    0.0000 C   0  0  0  0  0  0  0  0  0  0  0  0
   23.0112  -12.5436    0.0000 C   0  0  0  0  0  0  0  0  0  0  0  0
   23.0112  -14.0436    0.0000 C   0  0  0  0  0  0  0  0  0  0  0  0
   21.7123  -14.7936    0.0000 C   0  0  0  0  0  0  0  0  0  0  0  0
   20.4132  -14.0436    0.0000 C   0  0  0  0  0  0  0  0  0  0  0  0
   13.9182  -14.7936    0.0000 C   0  0  0  0  0  0  0  0  0  0  0  0
   12.6191  -15.5436    0.0000 C   0  0  0  0  0  0  0  0  0  0  0  0
   11.3200  -14.7936    0.0000 C   0  0  0  0  0  0  0  0  0  0  0  0
   26.4398  -15.1407    0.0000 O   0  0  0  0  0  0  0  0  0  0  0  0
   27.7389  -14.3907    0.0000 C   0  0  0  0  0  0  0  0  0  0  0  0
   29.0380  -15.1407    0.0000 O   0  0  0  0  0  0  0  0  0  0  0  0
   27.7389  -12.8908    0.0000 C   0  0  0  0  0  0  0  0  0  0  0  0
   27.7389  -11.3908    0.0000 F   0  0  0  0  0  0  0  0  0  0  0  0
   29.2389  -12.8908    0.0000 F   0  0  0  0  0  0  0  0  0  0  0  0
   26.2389  -12.8908    0.0000 F   0  0  0  0  0  0  0  0  0  0  0  0
  1  2  1  0  0  0  0
  2  3  1  0  0  0  0
  2 25  1  0  0  0  0
  3  4  2  0  0  0  0
  3  5  1  0  0  0  0
  5  6  1  0  0  0  0
  6  7  1  0  0  0  0
  7  8  2  0  0  0  0
  7 25  1  0  0  0  0
  8  9  1  0  0  0  0
  9 10  1  0  0  0  0
  9 23  2  0  0  0  0
 10 11  1  0  0  0  0
 11 12  1  0  0  0  0
 12 13  1  0  0  0  0
 12 14  1  0  0  0  0
 12 15  1  0  0  0  0
 15 16  1  0  0  0  0
 15 17  1  0  0  0  0
 17 18  2  0  0  0  0
 17 22  1  0  0  0  0
 18 19  1  0  0  0  0
 19 20  2  0  0  0  0
 20 21  1  0  0  0  0
 21 22  2  0  0  0  0
 23 24  1  0  0  0  0
 24 25  2  0  0  0  0
 26 27  1  0  0  0  0
 27 28  2  0  0  0  0
 27 29  1  0  0  0  0
 29 30  1  0  0  0  0
 29 31  1  0  0  0  0
 29 32  1  0  0  0  0
M  END
$$$$
