
     RDKit          3D

 26 29  0  0  0  0  0  0  0  0999 V2000
   -4.6683   -1.8781   -1.2551 C   0  0  0  0  0  0  0  0  0  0  0  0
   -3.9871   -0.4201   -1.1509 C   0  0  1  0  0  0  0  0  0  0  0  0
   -5.0240    0.1908   -0.1580 C   0  0  0  0  0  0  0  0  0  0  0  0
   -4.6548    0.7909    1.0059 C   0  0  0  0  0  0  0  0  0  0  0  0
   -5.6508    1.3029    1.7965 C   0  0  0  0  0  0  0  0  0  0  0  0
   -6.9932    1.2205    1.4554 C   0  0  0  0  0  0  0  0  0  0  0  0
   -7.3072    0.5950    0.2662 C   0  0  0  0  0  0  0  0  0  0  0  0
   -6.3303    0.0898   -0.5324 C   0  0  0  0  0  0  0  0  0  0  0  0
   -2.8122   -0.7500    0.0408 C   0  0  1  0  0  0  0  0  0  0  0  0
   -1.9965   -1.7424   -0.6746 O   0  0  0  0  0  0  0  0  0  0  0  0
   -1.9645    0.5443   -0.3194 C   0  0  0  0  0  0  0  0  0  0  0  0
   -0.7051    0.5041    0.2069 N   0  0  0  0  0  0  0  0  0  0  0  0
    0.1277    1.6127   -0.1969 C   0  0  0  0  0  0  0  0  0  0  0  0
    1.3934    0.9193   -0.7315 C   0  0  0  0  0  0  0  0  0  0  0  0
    2.1746    0.4662    0.5240 C   0  0  0  0  0  0  0  0  0  0  0  0
    3.3180   -0.3726    0.0521 C   0  0  0  0  0  0  0  0  0  0  0  0
    3.3452   -1.5768   -0.5719 C   0  0  0  0  0  0  0  0  0  0  0  0
    4.6278   -1.9065   -0.8155 N   0  0  0  0  0  0  0  0  0  0  0  0
    5.4820   -0.9432   -0.3702 C   0  0  0  0  0  0  0  0  0  0  0  0
    6.7825   -0.7609   -0.4408 N   0  0  0  0  0  0  0  0  0  0  0  0
    7.3232    0.3709    0.0085 C   0  0  0  0  0  0  0  0  0  0  0  0
    6.5551    1.3889    0.5836 C   0  0  0  0  0  0  0  0  0  0  0  0
    5.2149    1.2019    0.6656 C   0  0  0  0  0  0  0  0  0  0  0  0
    4.6134    0.0309    0.1792 C   0  0  0  0  0  0  0  0  0  0  0  0
    1.2354   -0.3113    1.4134 C   0  0  0  0  0  0  0  0  0  0  0  0
   -0.0992   -0.5672    0.8069 C   0  0  0  0  0  0  0  0  0  0  0  0
  2  1  1  1
  2  3  1  0
  3  4  2  0
  4  5  1  0
  5  6  2  0
  6  7  1  0
  7  8  2  0
  2  9  1  0
  9 10  1  6
  9 11  1  0
 11 12  1  0
 12 13  1  0
 13 14  1  0
 14 15  1  0
 15 16  1  0
 16 17  2  0
 17 18  1  0
 18 19  1  0
 19 20  2  0
 20 21  1  0
 21 22  2  0
 22 23  1  0
 23 24  2  0
 15 25  1  0
 25 26  1  0
  8  3  1  0
 26 12  1  0
 24 16  1  0
 24 19  1  0
M  END
>  <zinc_id>  (1) 
ZINC000450573233

>  <smiles>  (1) 
C[C@@H](c1ccccc1)[C@@H](O)CN1CCC(c2c[nH]c3ncccc23)CC1

$$$$
