
     RDKit          3D

 27 30  0  0  0  0  0  0  0  0999 V2000
    8.1889    0.3728    0.9563 C   0  0  0  0  0  0  0  0  0  0  0  0
    6.7532    0.0094    1.1029 C   0  0  0  0  0  0  0  0  0  0  0  0
    5.8408    0.9564    1.5105 C   0  0  0  0  0  0  0  0  0  0  0  0
    4.5380    0.6035    1.6354 C   0  0  0  0  0  0  0  0  0  0  0  0
    4.0433   -0.6669    1.3787 C   0  0  0  0  0  0  0  0  0  0  0  0
    2.5846   -0.9703    1.5452 C   0  0  0  0  0  0  0  0  0  0  0  0
    1.9754   -0.6622    0.1704 C   0  0  0  0  0  0  0  0  0  0  0  0
    2.2816    0.8056   -0.0660 C   0  0  0  0  0  0  0  0  0  0  0  0
    1.7352    1.2551   -1.3920 C   0  0  0  0  0  0  0  0  0  0  0  0
    0.3299    1.7005   -1.2557 C   0  0  0  0  0  0  0  0  0  0  0  0
   -0.3406    1.0539   -0.1749 N   0  0  0  0  0  0  0  0  0  0  0  0
   -1.6435    0.5244   -0.3629 C   0  0  0  0  0  0  0  0  0  0  0  0
   -2.1254    0.6825   -1.5358 O   0  0  0  0  0  0  0  0  0  0  0  0
   -2.3104   -0.1197    0.7041 C   0  0  0  0  0  0  0  0  0  0  0  0
   -3.5578   -0.6775    0.7251 N   0  0  0  0  0  0  0  0  0  0  0  0
   -4.4420    0.4652    0.6264 C   0  0  0  0  0  0  0  0  0  0  0  0
   -4.7029    0.1970   -0.9324 C   0  0  2  0  0  0  0  0  0  0  0  0
   -6.2011    0.7221   -1.1774 C   0  0  0  0  0  0  0  0  0  0  0  0
   -6.3611   -0.1588   -2.3923 C   0  0  0  0  0  0  0  0  0  0  0  0
   -5.8079   -1.6318   -1.9644 C   0  0  1  0  0  0  0  0  0  0  0  0
   -4.4460   -1.4395   -2.5567 O   0  0  0  0  0  0  0  0  0  0  0  0
   -5.4738   -1.2162   -0.3757 C   0  0  1  0  0  0  0  0  0  0  0  0
   -3.9593   -1.7387   -0.1629 C   0  0  0  0  0  0  0  0  0  0  0  0
    0.2352    0.8968    1.1622 C   0  0  0  0  0  0  0  0  0  0  0  0
    1.5961    1.5997    1.0217 C   0  0  0  0  0  0  0  0  0  0  0  0
    4.9643   -1.6084    0.9712 C   0  0  0  0  0  0  0  0  0  0  0  0
    6.3054   -1.2577    0.8390 C   0  0  0  0  0  0  0  0  0  0  0  0
  1  2  1  0
  2  3  2  0
  3  4  1  0
  4  5  2  0
  5  6  1  0
  6  7  1  0
  7  8  1  0
  8  9  1  0
  9 10  1  0
 10 11  1  0
 11 12  1  0
 12 13  2  0
 12 14  1  0
 14 15  1  0
 15 16  1  0
 17 16  1  1
 17 18  1  0
 18 19  1  0
 19 20  1  0
 20 21  1  6
 20 22  1  0
 22 23  1  6
 11 24  1  0
 24 25  1  0
  5 26  1  0
 26 27  2  0
 27  2  1  0
 25  8  1  0
 23 15  1  0
 22 17  1  0
M  END
>  <zinc_id>  (1) 
ZINC000544117725

>  <smiles>  (1) 
Cc1ccc(CCC2CCN(C(=O)CN3C[C@@H]4CC[C@@H](O)[C@H]4C3)CC2)cc1

$$$$
