
     RDKit          3D

 22 24  0  0  0  0  0  0  0  0999 V2000
   -4.5671    2.4314   -0.2512 C   0  0  0  0  0  0  0  0  0  0  0  0
   -4.5513    0.9272   -0.1090 C   0  0  0  0  0  0  0  0  0  0  0  0
   -3.6210    0.2698   -1.0830 C   0  0  0  0  0  0  0  0  0  0  0  0
   -3.4651   -1.1920   -0.8882 C   0  0  0  0  0  0  0  0  0  0  0  0
   -3.4683   -1.6261    0.5558 C   0  0  0  0  0  0  0  0  0  0  0  0
   -3.4265   -3.0035    0.6439 O   0  0  0  0  0  0  0  0  0  0  0  0
   -2.2276   -1.0362    1.1954 C   0  0  0  0  0  0  0  0  0  0  0  0
   -1.0370   -1.5181    0.5168 N   0  0  0  0  0  0  0  0  0  0  0  0
   -0.8742   -1.0356   -0.8388 C   0  0  0  0  0  0  0  0  0  0  0  0
    0.5559   -0.7333   -0.5376 C   0  0  0  0  0  0  0  0  0  0  0  0
    0.9878    0.6542   -0.9678 C   0  0  0  0  0  0  0  0  0  0  0  0
    2.4150    0.8072   -0.6037 C   0  0  0  0  0  0  0  0  0  0  0  0
    2.7885    1.3034    0.6230 C   0  0  0  0  0  0  0  0  0  0  0  0
    4.1176    1.4481    0.9664 C   0  0  0  0  0  0  0  0  0  0  0  0
    5.1087    1.0935    0.0752 C   0  0  0  0  0  0  0  0  0  0  0  0
    6.4313    1.2238    0.3818 F   0  0  0  0  0  0  0  0  0  0  0  0
    4.7059    0.5952   -1.1563 C   0  0  0  0  0  0  0  0  0  0  0  0
    5.6641    0.2426   -2.0480 F   0  0  0  0  0  0  0  0  0  0  0  0
    3.3818    0.4471   -1.5083 C   0  0  0  0  0  0  0  0  0  0  0  0
    0.1251   -0.7431    0.9104 C   0  0  0  0  0  0  0  0  0  0  0  0
   -4.6461   -1.0360    1.3144 C   0  0  0  0  0  0  0  0  0  0  0  0
   -4.3973    0.4803    1.3071 C   0  0  0  0  0  0  0  0  0  0  0  0
  1  2  1  0
  2  3  1  0
  3  4  1  0
  4  5  1  0
  5  6  1  0
  5  7  1  0
  7  8  1  0
  8  9  1  0
  9 10  1  0
 10 11  1  0
 11 12  1  0
 12 13  2  0
 13 14  1  0
 14 15  2  0
 15 16  1  0
 15 17  1  0
 17 18  1  0
 17 19  2  0
 10 20  1  0
  5 21  1  0
 21 22  1  0
 22  2  1  0
 20  8  1  0
 19 12  1  0
M  END
>  <zinc_id>  (1) 
ZINC000548355486

>  <smiles>  (1) 
CC1CCC(O)(CN2CC(Cc3ccc(F)c(F)c3)C2)CC1

$$$$
