
     RDKit          3D

 21 22  0  0  0  0  0  0  0  0999 V2000
    5.3229    1.5979   -0.9721 C   0  0  0  0  0  0  0  0  0  0  0  0
    3.8674    1.2106   -0.8084 C   0  0  0  0  0  0  0  0  0  0  0  0
    3.9106   -0.3121   -0.1762 C   0  0  1  0  0  0  0  0  0  0  0  0
    4.7328    0.0964    1.1906 C   0  0  0  0  0  0  0  0  0  0  0  0
    4.3599    1.3346    1.5770 O   0  0  0  0  0  0  0  0  0  0  0  0
    2.4811   -0.1617    0.4971 N   0  0  0  0  0  0  0  0  0  0  0  0
    1.5403   -0.0156   -0.5530 C   0  0  0  0  0  0  0  0  0  0  0  0
    1.1531   -1.3518   -1.1941 C   0  0  0  0  0  0  0  0  0  0  0  0
    0.6370   -2.2326   -0.0619 C   0  0  0  0  0  0  0  0  0  0  0  0
   -0.3994   -1.3365    0.6559 C   0  0  0  0  0  0  0  0  0  0  0  0
   -1.4698   -1.0205   -0.3843 C   0  0  0  0  0  0  0  0  0  0  0  0
   -2.5245   -0.1381    0.1273 C   0  0  0  0  0  0  0  0  0  0  0  0
   -2.2839    0.5738    1.2940 C   0  0  0  0  0  0  0  0  0  0  0  0
   -3.2687    1.4352    1.7620 C   0  0  0  0  0  0  0  0  0  0  0  0
   -4.4455    1.5592    1.0647 C   0  0  0  0  0  0  0  0  0  0  0  0
   -5.4527    2.3841    1.4657 F   0  0  0  0  0  0  0  0  0  0  0  0
   -4.6833    0.8510   -0.0913 C   0  0  0  0  0  0  0  0  0  0  0  0
   -3.7033   -0.0047   -0.5580 C   0  0  0  0  0  0  0  0  0  0  0  0
   -3.9207   -0.7203   -1.6999 F   0  0  0  0  0  0  0  0  0  0  0  0
    1.8036   -2.5180    0.8622 C   0  0  0  0  0  0  0  0  0  0  0  0
    2.3430   -1.2307    1.4066 C   0  0  0  0  0  0  0  0  0  0  0  0
  1  2  1  0
  3  2  1  6
  3  4  1  0
  4  5  1  0
  3  6  1  0
  6  7  1  0
  7  8  1  0
  8  9  1  0
  9 10  1  0
 10 11  1  0
 11 12  1  0
 12 13  2  0
 13 14  1  0
 14 15  2  0
 15 16  1  0
 15 17  1  0
 17 18  2  0
 18 19  1  0
  9 20  1  0
 20 21  1  0
 21  6  1  0
 18 12  1  0
M  END
>  <zinc_id>  (1) 
ZINC001460312963

>  <smiles>  (1) 
CC[C@@H](CO)N1CCC(CCc2ccc(F)cc2F)CC1

$$$$
