
     RDKit          3D

 20 22  0  0  0  0  0  0  0  0999 V2000
   -7.1388    0.2955    0.7105 C   0  0  0  0  0  0  0  0  0  0  0  0
   -5.6711    0.0628    0.7660 C   0  0  0  0  0  0  0  0  0  0  0  0
   -5.1426   -1.2131    0.5763 C   0  0  0  0  0  0  0  0  0  0  0  0
   -3.7823   -1.4287    0.6271 C   0  0  0  0  0  0  0  0  0  0  0  0
   -2.8824   -0.4065    0.8655 C   0  0  0  0  0  0  0  0  0  0  0  0
   -1.4411   -0.6486    0.9162 C   0  0  0  0  0  0  0  0  0  0  0  0
   -0.7447   -0.5173   -0.3943 C   0  0  0  0  0  0  0  0  0  0  0  0
    0.7543   -0.7785   -0.2872 C   0  0  0  0  0  0  0  0  0  0  0  0
    1.0331    0.3384   -1.1898 N   0  0  0  0  0  0  0  0  0  0  0  0
    2.1301    1.1357   -0.7190 C   0  0  0  0  0  0  0  0  0  0  0  0
    3.4377    0.3725   -0.7924 C   0  0  0  0  0  0  0  0  0  0  0  0
    3.7067   -0.0032   -2.1159 O   0  0  0  0  0  0  0  0  0  0  0  0
    4.5303    1.3316   -0.3799 C   0  0  0  0  0  0  0  0  0  0  0  0
    5.9069    0.7338   -0.5625 C   0  0  0  0  0  0  0  0  0  0  0  0
    5.9603   -0.7440    0.5251 S   0  0  0  0  0  0  0  0  0  0  0  0
    4.5071   -1.7357    0.0619 C   0  0  0  0  0  0  0  0  0  0  0  0
    3.3182   -0.8122    0.1190 C   0  0  0  0  0  0  0  0  0  0  0  0
   -0.2725    0.8659   -0.7789 C   0  0  0  0  0  0  0  0  0  0  0  0
   -3.4291    0.8597    1.0521 C   0  0  0  0  0  0  0  0  0  0  0  0
   -4.7802    1.0667    1.0002 C   0  0  0  0  0  0  0  0  0  0  0  0
  1  2  1  0
  2  3  2  0
  3  4  1  0
  4  5  2  0
  5  6  1  0
  6  7  1  0
  7  8  1  0
  8  9  1  0
  9 10  1  0
 10 11  1  0
 11 12  1  0
 11 13  1  0
 13 14  1  0
 14 15  1  0
 15 16  1  0
 16 17  1  0
  9 18  1  0
  5 19  1  0
 19 20  2  0
 20  2  1  0
 18  7  1  0
 17 11  1  0
M  END
>  <zinc_id>  (1) 
ZINC000656714762

>  <smiles>  (1) 
Cc1ccc(CC2CN(CC3(O)CCSCC3)C2)cc1

$$$$
