
     RDKit          3D

 28 30  0  0  0  0  0  0  0  0999 V2000
    1.7305   -0.2266   -1.8007 O   0  0  0  0  0  0  0  0  0  0  0  0
    1.4676   -0.3150   -0.2291 C   0  0  1  0  0  0  0  0  0  0  0  0
    2.4838    1.1175   -0.1932 C   0  0  0  0  0  0  0  0  0  0  0  0
    3.5358    0.5151   -1.0297 O   0  0  0  0  0  0  0  0  0  0  0  0
    3.8365   -0.6570   -0.2375 C   0  0  0  0  0  0  0  0  0  0  0  0
    5.2643   -0.4617    0.1129 C   0  0  0  0  0  0  0  0  0  0  0  0
    6.2179   -0.5886   -0.8730 C   0  0  0  0  0  0  0  0  0  0  0  0
    7.5317   -0.5581   -0.4452 C   0  0  0  0  0  0  0  0  0  0  0  0
    7.8576   -0.4178    0.8829 C   0  0  0  0  0  0  0  0  0  0  0  0
    6.8886   -0.2976    1.8510 C   0  0  0  0  0  0  0  0  0  0  0  0
    5.5674   -0.3086    1.4250 C   0  0  0  0  0  0  0  0  0  0  0  0
    4.5115   -0.1133    2.2617 F   0  0  0  0  0  0  0  0  0  0  0  0
    0.2007    0.8174   -0.4906 C   0  0  0  0  0  0  0  0  0  0  0  0
   -0.5522    0.1975   -1.4808 N   0  0  0  0  0  0  0  0  0  0  0  0
   -1.3222    0.9974   -2.3778 C   0  0  0  0  0  0  0  0  0  0  0  0
   -2.4498    0.1009   -2.0053 C   0  0  0  0  0  0  0  0  0  0  0  0
   -3.1532    0.7468   -0.7971 C   0  0  0  0  0  0  0  0  0  0  0  0
   -4.2824   -0.2057   -0.4862 C   0  0  0  0  0  0  0  0  0  0  0  0
   -4.7152   -0.9647   -1.5258 C   0  0  0  0  0  0  0  0  0  0  0  0
   -5.7310   -1.8823   -1.3544 C   0  0  0  0  0  0  0  0  0  0  0  0
   -6.2357   -1.9565   -0.0741 C   0  0  0  0  0  0  0  0  0  0  0  0
   -5.8398   -1.2028    0.9813 C   0  0  0  0  0  0  0  0  0  0  0  0
   -4.7906   -0.2574    0.7768 C   0  0  0  0  0  0  0  0  0  0  0  0
   -4.2446    0.5839    1.8701 C   0  0  0  0  0  0  0  0  0  0  0  0
   -4.9315    0.2927    3.0406 F   0  0  0  0  0  0  0  0  0  0  0  0
   -4.5158    1.9243    1.5711 F   0  0  0  0  0  0  0  0  0  0  0  0
   -2.9127    0.4058    2.0906 F   0  0  0  0  0  0  0  0  0  0  0  0
   -1.4170   -0.8584   -1.4635 C   0  0  0  0  0  0  0  0  0  0  0  0
  2  1  1  6
  2  3  1  0
  3  4  1  0
  4  5  1  0
  5  6  1  0
  6  7  2  0
  7  8  1  0
  8  9  2  0
  9 10  1  0
 10 11  2  0
 11 12  1  0
  2 13  1  0
 13 14  1  0
 14 15  1  0
 15 16  1  0
 16 17  1  0
 17 18  1  0
 18 19  2  0
 19 20  1  0
 20 21  2  0
 21 22  1  0
 22 23  2  0
 23 24  1  0
 24 25  1  0
 24 26  1  0
 24 27  1  0
 16 28  1  0
 11  6  1  0
 28 14  1  0
 23 18  1  0
M  END
>  <zinc_id>  (1) 
ZINC001254761628

>  <smiles>  (1) 
O[C@@H](COCc1ccccc1F)CN1CC(Cc2ccccc2C(F)(F)F)C1

$$$$
