
     RDKit          3D

 23 25  0  0  0  0  0  0  0  0999 V2000
   -1.9631   -0.4528    1.7111 C   0  0  0  0  0  0  0  0  0  0  0  0
   -1.6855   -0.5452    0.2894 C   0  0  0  0  0  0  0  0  0  0  0  0
   -1.6731   -1.9871   -0.2466 C   0  0  0  0  0  0  0  0  0  0  0  0
   -0.5179    0.0983   -0.2110 N   0  0  0  0  0  0  0  0  0  0  0  0
    0.6285   -0.5172    0.3978 C   0  0  0  0  0  0  0  0  0  0  0  0
    1.8619    0.1518   -0.1147 C   0  0  0  0  0  0  0  0  0  0  0  0
    1.9283    1.5150   -0.3226 C   0  0  0  0  0  0  0  0  0  0  0  0
    3.1070    2.0664   -0.8036 C   0  0  0  0  0  0  0  0  0  0  0  0
    4.2175    1.3174   -1.0847 C   0  0  0  0  0  0  0  0  0  0  0  0
    4.1511   -0.0658   -0.8743 C   0  0  0  0  0  0  0  0  0  0  0  0
    2.9814   -0.6114   -0.3971 C   0  0  0  0  0  0  0  0  0  0  0  0
    5.2812   -0.8155   -1.1626 O   0  0  0  0  0  0  0  0  0  0  0  0
    6.5442   -0.2467   -1.0144 C   0  0  0  0  0  0  0  0  0  0  0  0
    6.6583    1.2113   -1.2682 C   0  0  0  0  0  0  0  0  0  0  0  0
    5.4227    1.8054   -1.5661 O   0  0  0  0  0  0  0  0  0  0  0  0
   -2.9462    0.0713   -0.5729 C   0  0  2  0  0  0  0  0  0  0  0  0
   -2.7129    1.5196   -0.1357 O   0  0  0  0  0  0  0  0  0  0  0  0
   -4.1361   -0.1918    0.4607 C   0  0  0  0  0  0  0  0  0  0  0  0
   -5.1756   -0.9165   -0.0703 C   0  0  0  0  0  0  0  0  0  0  0  0
   -6.2973   -1.2106    0.7183 C   0  0  0  0  0  0  0  0  0  0  0  0
   -6.2790   -0.7327    2.0256 C   0  0  0  0  0  0  0  0  0  0  0  0
   -5.2287   -0.0081    2.5407 C   0  0  0  0  0  0  0  0  0  0  0  0
   -4.1667    0.2371    1.7013 C   0  0  0  0  0  0  0  0  0  0  0  0
  1  2  1  0
  2  3  1  0
  2  4  1  0
  4  5  1  0
  5  6  1  0
  6  7  2  0
  7  8  1  0
  8  9  2  0
  9 10  1  0
 10 11  2  0
 10 12  1  0
 12 13  1  0
 13 14  1  0
 14 15  1  0
  2 16  1  0
 16 17  1  1
 16 18  1  0
 18 19  2  0
 19 20  1  0
 20 21  2  0
 21 22  1  0
 22 23  2  0
 11  6  1  0
 23 18  1  0
 15  9  1  0
M  END
>  <zinc_id>  (1) 
ZINC000895657866

>  <smiles>  (1) 
CC(C)(NCc1ccc2c(c1)OCCO2)[C@H](O)c1ccccc1

$$$$
