
     RDKit          3D

 22 24  0  0  0  0  0  0  0  0999 V2000
   -3.1253   -2.1629    0.1873 F   0  0  0  0  0  0  0  0  0  0  0  0
   -3.2949   -0.8240   -0.0931 C   0  0  0  0  0  0  0  0  0  0  0  0
   -2.2292   -0.0693   -0.5224 C   0  0  0  0  0  0  0  0  0  0  0  0
   -0.9920   -0.8194   -0.8212 C   0  0  0  0  0  0  0  0  0  0  0  0
    0.0144   -0.2219   -0.0365 N   0  0  0  0  0  0  0  0  0  0  0  0
    0.3647    1.0640    0.1295 C   0  0  0  0  0  0  0  0  0  0  0  0
    1.7171    1.0508    0.9872 C   0  0  0  0  0  0  0  0  0  0  0  0
    2.3347   -0.1511    0.4417 N   0  0  0  0  0  0  0  0  0  0  0  0
    3.1355    0.0356   -0.6686 C   0  0  0  0  0  0  0  0  0  0  0  0
    4.4627    0.7260    0.0597 C   0  0  2  0  0  0  0  0  0  0  0  0
    5.4239    0.4501   -1.1983 C   0  0  0  0  0  0  0  0  0  0  0  0
    6.6674    0.3983   -0.2710 C   0  0  0  0  0  0  0  0  0  0  0  0
    6.1283   -0.7200    0.6056 C   0  0  0  0  0  0  0  0  0  0  0  0
    4.7892   -0.5505    0.7940 O   0  0  0  0  0  0  0  0  0  0  0  0
    1.8591   -1.3502    0.9223 C   0  0  0  0  0  0  0  0  0  0  0  0
    0.3328   -1.1341    1.0995 C   0  0  0  0  0  0  0  0  0  0  0  0
   -2.3785    1.2372   -0.7915 C   0  0  0  0  0  0  0  0  0  0  0  0
   -3.6644    1.8358   -0.6368 C   0  0  0  0  0  0  0  0  0  0  0  0
   -4.6925    1.0473   -0.2116 C   0  0  0  0  0  0  0  0  0  0  0  0
   -6.4782    1.8054   -0.0651 Br  0  0  0  0  0  0  0  0  0  0  0  0
   -4.5359   -0.3110    0.0790 C   0  0  0  0  0  0  0  0  0  0  0  0
   -5.8388   -1.3358    0.6368 Cl  0  0  0  0  0  0  0  0  0  0  0  0
  1  2  1  0
  2  3  2  0
  3  4  1  0
  4  5  1  0
  5  6  1  0
  6  7  1  0
  7  8  1  0
  8  9  1  0
 10  9  1  6
 10 11  1  0
 11 12  1  0
 12 13  1  0
 13 14  1  0
  8 15  1  0
 15 16  1  0
  3 17  1  0
 17 18  2  0
 18 19  1  0
 19 20  1  0
 19 21  2  0
 21 22  1  0
 21  2  1  0
 16  5  1  0
 14 10  1  0
M  END
>  <zinc_id>  (1) 
ZINC001237901728

>  <smiles>  (1) 
Fc1c(CN2CCN(C[C@@H]3CCCO3)CC2)ccc(Br)c1Cl

$$$$
