
     RDKit          3D

 22 25  0  0  0  0  0  0  0  0999 V2000
    1.6299    1.5263    1.1407 O   0  0  0  0  0  0  0  0  0  0  0  0
    1.8296    0.9525   -0.0944 C   0  0  1  0  0  0  0  0  0  0  0  0
    0.5962    0.3736   -0.6794 C   0  0  0  0  0  0  0  0  0  0  0  0
   -0.5106    1.3629   -0.6875 N   0  0  0  0  0  0  0  0  0  0  0  0
   -1.3881    0.8266   -1.6788 C   0  0  0  0  0  0  0  0  0  0  0  0
   -2.7254    0.5160   -1.1252 C   0  0  0  0  0  0  0  0  0  0  0  0
   -3.7683    0.2693   -2.0201 C   0  0  0  0  0  0  0  0  0  0  0  0
   -4.9110   -0.3463   -1.6018 C   0  0  0  0  0  0  0  0  0  0  0  0
   -5.1152   -0.7605   -0.2841 C   0  0  0  0  0  0  0  0  0  0  0  0
   -4.0599   -0.5004    0.6124 C   0  0  0  0  0  0  0  0  0  0  0  0
   -2.9228    0.1169    0.2014 C   0  0  0  0  0  0  0  0  0  0  0  0
   -2.0444    0.2828    1.2684 O   0  0  0  0  0  0  0  0  0  0  0  0
   -2.3854   -0.7410    2.1919 C   0  0  0  0  0  0  0  0  0  0  0  0
   -3.9037   -0.8544    2.0601 C   0  0  0  0  0  0  0  0  0  0  0  0
    2.6050    1.7730   -1.0538 C   0  0  0  0  0  0  0  0  0  0  0  0
    4.0456    1.5485   -0.7088 C   0  0  0  0  0  0  0  0  0  0  0  0
    4.0331    0.1939   -0.1296 C   0  0  0  0  0  0  0  0  0  0  0  0
    5.0994   -0.6615    0.0653 C   0  0  0  0  0  0  0  0  0  0  0  0
    4.8943   -1.9101    0.6044 C   0  0  0  0  0  0  0  0  0  0  0  0
    3.6438   -2.3064    0.9442 C   0  0  0  0  0  0  0  0  0  0  0  0
    2.5494   -1.4556    0.7622 C   0  0  0  0  0  0  0  0  0  0  0  0
    2.8082   -0.2060    0.2127 C   0  0  0  0  0  0  0  0  0  0  0  0
  2  1  1  1
  2  3  1  0
  3  4  1  0
  4  5  1  0
  5  6  1  0
  6  7  2  0
  7  8  1  0
  8  9  2  0
  9 10  1  0
 10 11  2  0
 11 12  1  0
 12 13  1  0
 13 14  1  0
  2 15  1  0
 15 16  1  0
 16 17  1  0
 17 18  2  0
 18 19  1  0
 19 20  2  0
 20 21  1  0
 21 22  2  0
 22  2  1  0
 11  6  1  0
 22 17  1  0
 14 10  1  0
M  END
>  <zinc_id>  (1) 
ZINC000921927365

>  <smiles>  (1) 
O[C@@]1(CNCc2cccc3c2OCC3)CCc2ccccc21

$$$$
