
     RDKit          3D

 22 24  0  0  0  0  0  0  0  0999 V2000
    5.9851    2.3634   -0.3240 C   0  0  0  0  0  0  0  0  0  0  0  0
    4.8184    2.0483    0.5424 C   0  0  0  0  0  0  0  0  0  0  0  0
    4.6266    2.9519    1.7058 C   0  0  0  0  0  0  0  0  0  0  0  0
    4.7402    0.6036    0.9621 C   0  0  0  0  0  0  0  0  0  0  0  0
    4.6332   -0.3102   -0.2353 C   0  0  0  0  0  0  0  0  0  0  0  0
    3.4747   -0.0186   -0.9949 O   0  0  0  0  0  0  0  0  0  0  0  0
    2.3894   -0.2681    0.0556 C   0  0  2  0  0  0  0  0  0  0  0  0
    2.8432   -1.8563    0.2533 C   0  0  0  0  0  0  0  0  0  0  0  0
    1.5449   -2.5468   -0.0022 C   0  0  0  0  0  0  0  0  0  0  0  0
    0.5818   -1.5759   -0.2468 N   0  0  0  0  0  0  0  0  0  0  0  0
   -0.6484   -2.1077   -0.6665 C   0  0  0  0  0  0  0  0  0  0  0  0
   -1.6375   -0.7945   -0.8984 C   0  0  1  0  0  0  0  0  0  0  0  0
   -3.0181   -1.6631   -0.5229 C   0  0  0  0  0  0  0  0  0  0  0  0
   -3.7398   -0.4281   -0.1258 C   0  0  0  0  0  0  0  0  0  0  0  0
   -3.9046    0.3831   -1.4153 C   0  0  0  0  0  0  0  0  0  0  0  0
   -3.9502    1.8296   -0.9676 C   0  0  0  0  0  0  0  0  0  0  0  0
   -4.8416    1.8998    0.2499 C   0  0  0  0  0  0  0  0  0  0  0  0
   -5.8163    0.7556    0.3279 C   0  0  0  0  0  0  0  0  0  0  0  0
   -5.0751   -0.5817    0.4867 C   0  0  0  0  0  0  0  0  0  0  0  0
   -2.7345    0.3046    0.7113 C   0  0  0  0  0  0  0  0  0  0  0  0
   -1.5239   -0.3188    0.5754 O   0  0  0  0  0  0  0  0  0  0  0  0
    1.2525   -0.6701   -1.1103 C   0  0  0  0  0  0  0  0  0  0  0  0
  1  2  1  0
  2  3  1  0
  2  4  1  0
  4  5  1  0
  5  6  1  0
  7  6  1  6
  7  8  1  0
  8  9  1  0
  9 10  1  0
 10 11  1  0
 12 11  1  1
 12 13  1  0
 13 14  1  0
 14 15  1  0
 15 16  1  0
 16 17  1  0
 17 18  1  0
 18 19  1  0
 14 20  1  0
 20 21  1  0
 10 22  1  0
 22  7  1  0
 21 12  1  0
 19 14  1  0
M  END
>  <zinc_id>  (1) 
ZINC001196519317

>  <smiles>  (1) 
CC(C)CCO[C@@H]1CCN(C[C@H]2CC3(CCCCC3)CO2)C1

$$$$
