
     RDKit          3D

 22 24  0  0  0  0  0  0  0  0999 V2000
   -4.0852   -0.3946    2.5401 F   0  0  0  0  0  0  0  0  0  0  0  0
   -4.4438    0.0968    1.3100 C   0  0  0  0  0  0  0  0  0  0  0  0
   -5.6768    0.7584    1.1400 C   0  0  0  0  0  0  0  0  0  0  0  0
   -5.9874    1.1653   -0.1678 C   0  0  0  0  0  0  0  0  0  0  0  0
   -5.1428    0.9266   -1.1970 C   0  0  0  0  0  0  0  0  0  0  0  0
   -3.9192    0.2576   -0.9941 C   0  0  0  0  0  0  0  0  0  0  0  0
   -3.5998   -0.1348    0.2702 C   0  0  0  0  0  0  0  0  0  0  0  0
   -2.2222   -0.7747    0.4988 C   0  0  1  0  0  0  0  0  0  0  0  0
   -2.4963   -2.1820   -0.3134 C   0  0  0  0  0  0  0  0  0  0  0  0
   -0.9416   -2.3799   -0.5412 C   0  0  0  0  0  0  0  0  0  0  0  0
   -0.7633   -1.2312   -1.4118 N   0  0  0  0  0  0  0  0  0  0  0  0
    0.3515   -1.0103   -2.1095 C   0  0  0  0  0  0  0  0  0  0  0  0
    1.5402   -0.6174   -1.4334 C   0  0  0  0  0  0  0  0  0  0  0  0
    2.5268   -0.2191   -0.8896 C   0  0  0  0  0  0  0  0  0  0  0  0
    3.6851    0.3265   -0.2424 C   0  0  0  0  0  0  0  0  0  0  0  0
    3.4708    1.3846    0.6386 C   0  0  0  0  0  0  0  0  0  0  0  0
    4.5455    2.0130    1.2249 C   0  0  0  0  0  0  0  0  0  0  0  0
    5.8455    1.5998    0.9519 C   0  0  0  0  0  0  0  0  0  0  0  0
    6.0619    0.5441    0.0783 C   0  0  0  0  0  0  0  0  0  0  0  0
    7.7100    0.0719   -0.2087 Cl  0  0  0  0  0  0  0  0  0  0  0  0
    4.9829   -0.0632   -0.4901 C   0  0  0  0  0  0  0  0  0  0  0  0
   -1.4419   -0.1375   -0.7777 C   0  0  0  0  0  0  0  0  0  0  0  0
  1  2  1  0
  2  3  2  0
  3  4  1  0
  4  5  2  0
  5  6  1  0
  6  7  2  0
  8  7  1  6
  8  9  1  0
  9 10  1  0
 10 11  1  0
 11 12  1  0
 12 13  1  0
 13 14  3  0
 14 15  1  0
 15 16  2  0
 16 17  1  0
 17 18  2  0
 18 19  1  0
 19 20  1  0
 19 21  2  0
 11 22  1  0
  7  2  1  0
 22  8  1  0
 21 15  1  0
M  END
>  <zinc_id>  (1) 
ZINC001170548029

>  <smiles>  (1) 
Fc1ccccc1[C@H]1CCN(CC#Cc2cccc(Cl)c2)C1

$$$$
