
     RDKit          3D

 19 21  0  0  0  0  0  0  0  0999 V2000
   -5.9281    0.9837   -0.7189 C   0  0  0  0  0  0  0  0  0  0  0  0
   -4.4733    0.7084   -0.4173 C   0  0  0  0  0  0  0  0  0  0  0  0
   -3.9066    1.1101    0.7579 C   0  0  0  0  0  0  0  0  0  0  0  0
   -2.5756    0.8947    1.0507 C   0  0  0  0  0  0  0  0  0  0  0  0
   -1.7968    0.2372    0.0868 C   0  0  0  0  0  0  0  0  0  0  0  0
   -0.2512    0.2687    0.3351 C   0  0  1  0  0  0  0  0  0  0  0  0
   -0.0520   -0.9409    1.3534 C   0  0  0  0  0  0  0  0  0  0  0  0
    1.2426   -1.6146    0.7232 C   0  0  0  0  0  0  0  0  0  0  0  0
    1.5929   -0.7371   -0.3965 N   0  0  0  0  0  0  0  0  0  0  0  0
    2.1150    0.4559    0.1982 C   0  0  0  0  0  0  0  0  0  0  0  0
    3.5730    0.3341    0.5650 C   0  0  0  0  0  0  0  0  0  0  0  0
    4.0563    1.4336    1.2610 O   0  0  0  0  0  0  0  0  0  0  0  0
    4.4022    0.3043   -0.8127 C   0  0  0  0  0  0  0  0  0  0  0  0
    5.0104   -0.9381   -0.3256 C   0  0  0  0  0  0  0  0  0  0  0  0
    4.1195   -0.9820    0.9444 C   0  0  0  0  0  0  0  0  0  0  0  0
    0.3059   -0.4303   -0.9963 C   0  0  0  0  0  0  0  0  0  0  0  0
   -2.3445   -0.1685   -1.0835 C   0  0  0  0  0  0  0  0  0  0  0  0
   -1.4490   -0.9650   -2.0253 C   0  0  0  0  0  0  0  0  0  0  0  0
   -3.6407    0.0458   -1.3574 C   0  0  0  0  0  0  0  0  0  0  0  0
  1  2  1  0
  2  3  2  0
  3  4  1  0
  4  5  2  0
  6  5  1  6
  6  7  1  0
  7  8  1  0
  8  9  1  0
  9 10  1  0
 10 11  1  0
 11 12  1  0
 11 13  1  0
 13 14  1  0
 14 15  1  0
  9 16  1  0
  5 17  1  0
 17 18  1  0
 17 19  2  0
 19  2  1  0
 16  6  1  0
 15 11  1  0
M  END
>  <zinc_id>  (1) 
ZINC000348332392

>  <smiles>  (1) 
Cc1ccc([C@H]2CCN(CC3(O)CCC3)C2)c(C)c1

$$$$
