
     RDKit          3D

 29 32  0  0  0  0  0  0  0  0999 V2000
    1.9876    2.4530    0.2714 C   0  0  0  0  0  0  0  0  0  0  0  0
    1.3675    1.9898   -1.1997 C   0  0  1  0  0  0  0  0  0  0  0  0
    1.9092    0.4955   -1.1051 C   0  0  0  0  0  0  0  0  0  0  0  0
    1.1798   -0.4029   -0.6943 O   0  0  0  0  0  0  0  0  0  0  0  0
    3.2382    0.2918   -1.5135 N   0  0  0  0  0  0  0  0  0  0  0  0
    4.0455    1.3780   -1.9864 C   0  0  0  0  0  0  0  0  0  0  0  0
    3.7905   -1.0340   -1.4510 C   0  0  0  0  0  0  0  0  0  0  0  0
    4.4216   -1.2326   -0.1474 C   0  0  0  0  0  0  0  0  0  0  0  0
    3.6410   -1.6124    0.9186 C   0  0  0  0  0  0  0  0  0  0  0  0
    4.1817   -1.8142    2.1661 C   0  0  0  0  0  0  0  0  0  0  0  0
    5.5400   -1.6188    2.2991 C   0  0  0  0  0  0  0  0  0  0  0  0
    6.3535   -1.2378    1.2521 C   0  0  0  0  0  0  0  0  0  0  0  0
    7.6910   -1.0464    1.3873 F   0  0  0  0  0  0  0  0  0  0  0  0
    5.7703   -1.0412   -0.0027 C   0  0  0  0  0  0  0  0  0  0  0  0
   -0.0740    1.7344   -0.6451 N   0  0  0  0  0  0  0  0  0  0  0  0
   -0.7186    1.0156   -1.7298 C   0  0  0  0  0  0  0  0  0  0  0  0
   -2.0908    0.7174   -1.1627 C   0  0  0  0  0  0  0  0  0  0  0  0
   -2.2393    0.2393    0.0516 C   0  0  0  0  0  0  0  0  0  0  0  0
   -3.5494   -0.0563    0.6233 C   0  0  0  0  0  0  0  0  0  0  0  0
   -3.8510   -0.5499    1.8701 C   0  0  0  0  0  0  0  0  0  0  0  0
   -5.1861   -0.6694    1.9711 N   0  0  0  0  0  0  0  0  0  0  0  0
   -5.7923   -0.2738    0.8366 C   0  0  0  0  0  0  0  0  0  0  0  0
   -7.0494   -0.1816    0.3949 N   0  0  0  0  0  0  0  0  0  0  0  0
   -7.3509    0.2687   -0.8340 C   0  0  0  0  0  0  0  0  0  0  0  0
   -6.3449    0.6569   -1.6920 C   0  0  0  0  0  0  0  0  0  0  0  0
   -5.0398    0.5808   -1.2843 C   0  0  0  0  0  0  0  0  0  0  0  0
   -4.7851    0.1107   -0.0112 C   0  0  0  0  0  0  0  0  0  0  0  0
   -1.0281   -0.0110    0.8440 C   0  0  0  0  0  0  0  0  0  0  0  0
   -0.0177    1.0566    0.5728 C   0  0  0  0  0  0  0  0  0  0  0  0
  2  1  1  1
  2  3  1  0
  3  4  2  0
  3  5  1  0
  5  6  1  0
  5  7  1  0
  7  8  1  0
  8  9  2  0
  9 10  1  0
 10 11  2  0
 11 12  1  0
 12 13  1  0
 12 14  2  0
  2 15  1  0
 15 16  1  0
 16 17  1  0
 17 18  2  0
 18 19  1  0
 19 20  2  0
 20 21  1  0
 21 22  1  0
 22 23  2  0
 23 24  1  0
 24 25  2  0
 25 26  1  0
 26 27  2  0
 18 28  1  0
 28 29  1  0
 14  8  1  0
 29 15  1  0
 27 19  1  0
 27 22  1  0
M  END
>  <zinc_id>  (1) 
ZINC000533478938

>  <smiles>  (1) 
C[C@@H](C(=O)N(C)Cc1cccc(F)c1)N1CC=C(c2c[nH]c3ncccc23)CC1

$$$$
