
     RDKit          3D

 18 19  0  0  0  0  0  0  0  0999 V2000
   -0.6879   -3.4691    0.2101 N   0  0  0  0  0  0  0  0  0  0  0  0
   -1.3799   -2.2604   -0.1725 C   0  0  0  0  0  0  0  0  0  0  0  0
   -0.6771   -1.2387   -0.5914 N   0  0  0  0  0  0  0  0  0  0  0  0
    0.7702   -1.4022   -0.6417 C   0  0  0  0  0  0  0  0  0  0  0  0
    1.5314   -0.1913   -0.3293 C   0  0  0  0  0  0  0  0  0  0  0  0
    0.9999    1.0290   -0.0081 C   0  0  0  0  0  0  0  0  0  0  0  0
    1.8120    2.1193    0.2713 C   0  0  0  0  0  0  0  0  0  0  0  0
    3.1789    2.0363    0.2420 C   0  0  0  0  0  0  0  0  0  0  0  0
    3.9232    3.1286    0.5210 F   0  0  0  0  0  0  0  0  0  0  0  0
    3.7196    0.8095   -0.0807 C   0  0  0  0  0  0  0  0  0  0  0  0
    2.9283   -0.2692   -0.3575 C   0  0  0  0  0  0  0  0  0  0  0  0
    3.7882   -1.9206   -0.7950 Br  0  0  0  0  0  0  0  0  0  0  0  0
   -2.7688   -2.1397   -0.1292 N   0  0  0  0  0  0  0  0  0  0  0  0
   -3.5674   -1.0127   -0.4748 C   0  0  0  0  0  0  0  0  0  0  0  0
   -3.4867    0.1728    0.4104 C   0  0  0  0  0  0  0  0  0  0  0  0
   -4.4368    1.2575   -0.1381 C   0  0  0  0  0  0  0  0  0  0  0  0
   -3.3051    2.2624   -0.0645 C   0  0  0  0  0  0  0  0  0  0  0  0
   -2.3421    1.0883    0.0712 C   0  0  0  0  0  0  0  0  0  0  0  0
  1  2  1  0
  2  3  2  0
  3  4  1  0
  4  5  1  0
  5  6  2  0
  6  7  1  0
  7  8  2  0
  8  9  1  0
  8 10  1  0
 10 11  2  0
 11 12  1  0
  2 13  1  0
 13 14  1  0
 14 15  1  0
 15 16  1  0
 16 17  1  0
 17 18  1  0
 11  5  1  0
 18 15  1  0
M  END
>  <zinc_id>  (1) 
ZINC000170908795

>  <smiles>  (1) 
N/C(=N\Cc1ccc(F)cc1Br)NCC1CCC1

$$$$
