
##########                                Name:        AS4_201_2AA2
##########                    Molecular_Weight:              360.45
##########                DOCK_Rotatable_Bonds:                   4
##########                       Formal_Charge:        -0.000700012
##########                     HBond_Acceptors:                   5
##########                        HBond_Donors:                   2
##########                         Heavy_Atoms:                  26
##########                            HA_RMSDs:               0.146
##########                            HA_RMSDh:               0.146
##########                            HA_RMSDm:               0.146
##########                          Grid_Score:          -47.034042
##########                     Grid_vdw_energy:          -50.613628
##########                      Grid_es_energy:            3.579584
##########           Internal_energy_repulsive:           21.807066

@<TRIPOS>MOLECULE
AS4_201_2AA2
 54 58 1 0 0
SMALL
USER_CHARGES


@<TRIPOS>ATOM
      1 C1         19.0089   69.4708   20.1169 C.3     1  <0>        -0.0555
      2 C2         21.1581   74.7061   20.6317 C.3     1  <0>        -0.0486
      3 C3         20.7063   75.7223   21.7080 C.3     1  <0>        -0.0425
      4 C4         20.9748   72.2942   18.4538 C.3     1  <0>        -0.0459
      5 C5         21.0968   70.8039   18.0160 C.3     1  <0>        -0.0305
      6 C6         17.0985   68.6859   17.7484 C.3     1  <0>         0.0107
      7 C7         17.2380   70.1047   18.3276 C.3     1  <0>        -0.0366
      8 C8         17.4459   73.7805   20.7865 C.3     1  <0>        -0.0150
      9 C9         19.4441   69.3544   16.7268 C.2     1  <0>        -0.0194
     10 C10        16.9661   76.4187   23.0036 C.3     1  <0>         0.1025
     11 C11        20.0378   72.5088   19.7031 C.3     1  <0>        -0.0313
     12 C12        19.8588   73.9952   20.1451 C.3     1  <0>        -0.0268
     13 C13        19.1595   75.5940   21.7503 C.3     1  <0>         0.0304
     14 C14        17.6217   72.2540   20.6087 C.3     1  <0>         0.0662
     15 C15        18.6128   71.9674   19.3724 C.3     1  <0>        -0.0024
     16 C16        18.9854   72.9441   22.4332 C.3     1  <0>         0.1631
     17 C17        19.7093   70.1518   17.8005 C.2     1  <0>        -0.0600
     18 C18        18.0757   68.6654   16.5444 C.2     1  <0>         0.1561
     19 C19        18.4725   76.1548   23.0498 C.2     1  <0>         0.1622
     20 C20        18.6558   70.4300   18.9200 C.3     1  <0>        -0.0049
     21 C21        18.8617   74.1087   21.3779 C.3     1  <0>         0.0365
     22 O1         16.4666   76.4879   24.3418 O.3     1  <0>        -0.3875
     23 O2         18.3893   73.2418   23.6952 O.3     1  <0>        -0.3665
     24 O3         17.7485   68.0971   15.5092 O.2     1  <0>        -0.2927
     25 O4         19.1319   76.3630   24.0391 O.2     1  <0>        -0.2947
     26 O5         18.1899   71.8261   21.8742 O.3     1  <0>        -0.3474
     27 H1         20.0052   69.7238   20.5086 H       1  <0>         0.0238
     28 H2         18.2606   69.5892   20.9144 H       1  <0>         0.0238
     29 H3         19.0075   68.4289   19.7642 H       1  <0>         0.0238
     30 H4         21.6561   75.2201   19.7964 H       1  <0>         0.0268
     31 H5         21.8639   73.9774   21.0570 H       1  <0>         0.0268
     32 H6         21.1495   75.4851   22.6864 H       1  <0>         0.0272
     33 H7         21.0109   76.7444   21.4390 H       1  <0>         0.0272
     34 H8         21.9799   72.6583   18.7130 H       1  <0>         0.0271
     35 H9         20.5583   72.8656   17.6111 H       1  <0>         0.0271
     36 H10        21.6582   70.7588   17.0712 H       1  <0>         0.0310
     37 H11        21.6293   70.2481   18.8019 H       1  <0>         0.0310
     38 H12        17.3687   67.9232   18.4937 H       1  <0>         0.0345
     39 H13        16.0656   68.4868   17.4266 H       1  <0>         0.0345
     40 H14        17.0397   70.8207   17.5163 H       1  <0>         0.0278
     41 H15        16.5017   70.2117   19.1379 H       1  <0>         0.0278
     42 H16        17.2348   74.3072   19.8441 H       1  <0>         0.0297
     43 H17        16.6193   74.0480   21.4613 H       1  <0>         0.0297
     44 H18        20.2127   69.2008   15.9839 H       1  <0>         0.0652
     45 H19        16.7727   77.3702   22.4867 H       1  <0>         0.0636
     46 H20        16.4639   75.6029   22.4629 H       1  <0>         0.0636
     47 H21        20.5329   71.9735   20.5267 H       1  <0>         0.0307
     48 H22        19.4929   74.4795   19.2277 H       1  <0>         0.0311
     49 H23        18.6791   76.2625   21.0207 H       1  <0>         0.0385
     50 H24        16.6891   71.7172   20.3801 H       1  <0>         0.0600
     51 H25        18.2084   72.5077   18.5037 H       1  <0>         0.0337
     52 H26        20.0540   72.7446   22.6011 H       1  <0>         0.0913
     53 H27        17.1948   76.5075   24.9515 H       1  <0>         0.2100
     54 H28        18.5226   72.5123   24.2889 H       1  <0>         0.2125
@<TRIPOS>BOND
     1     1    20    1
     2     2     3    1
     3     2    12    1
     4     3    13    1
     5     4     5    1
     6     4    11    1
     7     5    17    1
     8     6     7    1
     9     6    18    1
    10     7    20    1
    11     8    14    1
    12     8    21    1
    13     9    17    2
    14     9    18    1
    15    10    19    1
    16    10    22    1
    17    11    12    1
    18    11    15    1
    19    12    21    1
    20    13    19    1
    21    13    21    1
    22    14    15    1
    23    14    26    1
    24    15    20    1
    25    16    21    1
    26    16    23    1
    27    16    26    1
    28    17    20    1
    29    18    24    2
    30    19    25    2
    31     1    27    1
    32     1    28    1
    33     1    29    1
    34     2    30    1
    35     2    31    1
    36     3    32    1
    37     3    33    1
    38     4    34    1
    39     4    35    1
    40     5    36    1
    41     5    37    1
    42     6    38    1
    43     6    39    1
    44     7    40    1
    45     7    41    1
    46     8    42    1
    47     8    43    1
    48     9    44    1
    49    10    45    1
    50    10    46    1
    51    11    47    1
    52    12    48    1
    53    13    49    1
    54    14    50    1
    55    15    51    1
    56    16    52    1
    57    22    53    1
    58    23    54    1
@<TRIPOS>SUBSTRUCTURE
     1 <0>         1 TEMP              0 ****  ****    0 ROOT

