
##########                                Name:        OHT_101_2FSZ
##########                    Molecular_Weight:             390.545
##########                DOCK_Rotatable_Bonds:                  10
##########                       Formal_Charge:              0.9997
##########                     HBond_Acceptors:                   3
##########                        HBond_Donors:                   2
##########                         Heavy_Atoms:                  29
##########                            HA_RMSDs:               0.411
##########                            HA_RMSDh:               0.411
##########                            HA_RMSDm:               0.411
##########                          Grid_Score:          -82.825775
##########                     Grid_vdw_energy:          -39.252102
##########                      Grid_es_energy:          -43.573669
##########           Internal_energy_repulsive:           13.239405

@<TRIPOS>MOLECULE
OHT_101_2FSZ
 61 63 1 0 0
SMALL
USER_CHARGES


@<TRIPOS>ATOM
      1 C1         89.9501   19.0072   -4.7869 C.3     1  <0>        -0.0647
      2 C2        102.3744   23.4731   -1.2035 C.3     1  <0>        -0.0433
      3 C3        100.3533   23.3562    0.0334 C.3     1  <0>        -0.0433
      4 C4         93.8714   15.9124   -2.0081 C.ar    1  <0>        -0.0617
      5 C5         93.9981   15.6958   -3.4454 C.ar    1  <0>        -0.0615
      6 C6         93.3325   17.1455   -1.4678 C.ar    1  <0>        -0.0615
      7 C7         93.5762   16.7383   -4.3784 C.ar    1  <0>        -0.0583
      8 C8         92.9101   18.1840   -2.3845 C.ar    1  <0>        -0.0583
      9 C9         91.4310   22.3567   -5.3208 C.ar    1  <0>        -0.0555
     10 C10        93.4865   22.3613   -6.7241 C.ar    1  <0>        -0.0555
     11 C11        94.7290   21.5318   -3.0490 C.ar    1  <0>        -0.0555
     12 C12        95.7881   19.8931   -4.6730 C.ar    1  <0>        -0.0555
     13 C13        90.9507   23.5399   -5.9670 C.ar    1  <0>        -0.0317
     14 C14        93.0238   23.5552   -7.3915 C.ar    1  <0>        -0.0317
     15 C15        96.0139   21.7008   -2.4024 C.ar    1  <0>        -0.0314
     16 C16        97.0674   20.0669   -4.0219 C.ar    1  <0>        -0.0314
     17 C17        91.2656   18.6259   -5.4875 C.3     1  <0>        -0.0482
     18 C18       100.7072   21.8899   -1.9015 C.3     1  <0>        -0.0079
     19 C19        99.4516   21.9564   -2.7795 C.3     1  <0>         0.0940
     20 C20        93.0246   17.9953   -3.8451 C.ar    1  <0>        -0.0434
     21 C21        92.7016   21.7067   -5.6523 C.ar    1  <0>        -0.0392
     22 C22        94.5979   20.6164   -4.2013 C.ar    1  <0>        -0.0392
     23 C23        91.7552   24.1292   -6.9917 C.ar    1  <0>         0.0726
     24 C24        97.1943   20.9514   -2.8983 C.ar    1  <0>         0.0764
     25 C25        92.5562   19.1148   -4.7620 C.3     1  <0>        -0.0053
     26 C26        93.2198   20.4206   -4.8874 C.3     1  <0>         0.0160
     27 N1        100.9310   23.2233   -1.3120 N.4     1  <0>         0.2325
     28 O1         91.3116   25.2601   -7.6062 O.3     1  <0>        -0.3598
     29 O2         98.4838   21.0259   -2.3250 O.3     1  <0>        -0.3394
     30 H1         89.0995   18.6219   -5.3683 H       1  <0>         0.0230
     31 H2         89.9323   18.5701   -3.7777 H       1  <0>         0.0230
     32 H3         89.8779   20.1023   -4.7137 H       1  <0>         0.0230
     33 H4        102.8386   23.3811   -2.1965 H       1  <0>         0.0777
     34 H5        102.5424   24.4876   -0.8130 H       1  <0>         0.0777
     35 H6        102.8232   22.7377   -0.5195 H       1  <0>         0.0777
     36 H7         99.2694   23.1744   -0.0128 H       1  <0>         0.0777
     37 H8        100.8196   22.6218    0.7067 H       1  <0>         0.0777
     38 H9        100.5387   24.3717    0.4133 H       1  <0>         0.0777
     39 H10        94.1872   15.1343   -1.3290 H       1  <0>         0.0618
     40 H11        94.4028   14.7668   -3.8189 H       1  <0>         0.0618
     41 H12        93.2476   17.2869   -0.4004 H       1  <0>         0.0618
     42 H13        93.6677   16.5890   -5.4441 H       1  <0>         0.0620
     43 H14        92.5067   19.1073   -1.9957 H       1  <0>         0.0620
     44 H15        90.8220   21.9179   -4.5442 H       1  <0>         0.0621
     45 H16        94.4340   21.9325   -7.0154 H       1  <0>         0.0621
     46 H17        93.8674   22.0744   -2.6890 H       1  <0>         0.0621
     47 H18        95.7058   19.2236   -5.5164 H       1  <0>         0.0621
     48 H19        90.0035   23.9770   -5.6874 H       1  <0>         0.0643
     49 H20        93.6123   24.0115   -8.1737 H       1  <0>         0.0643
     50 H21        96.1125   22.3709   -1.5612 H       1  <0>         0.0643
     51 H22        97.9315   19.5288   -4.3825 H       1  <0>         0.0643
     52 H23        91.3088   17.5283   -5.5456 H       1  <0>         0.0269
     53 H24        91.2539   19.0760   -6.4910 H       1  <0>         0.0269
     54 H25       100.5659   21.1469   -1.1027 H       1  <0>         0.0837
     55 H26       101.5753   21.6006   -2.5120 H       1  <0>         0.0837
     56 H27        99.0291   22.9708   -2.7300 H       1  <0>         0.0619
     57 H28        99.7234   21.7172   -3.8181 H       1  <0>         0.0619
     58 H29        92.9674   20.0854   -5.0764 H       1  <0>         0.0358
     59 H30        92.2816   19.9912   -5.2687 H       1  <0>         0.0403
     60 H31       100.4824   23.8824   -1.9156 H       1  <0>         0.2028
     61 H32        91.9682   25.5653   -8.2211 H       1  <0>         0.2173
@<TRIPOS>BOND
     1     1    17    1
     2     2    27    1
     3     3    27    1
     4     4     5   ar
     5     4     6   ar
     6     5     7   ar
     7     6     8   ar
     8     7    20   ar
     9     8    20   ar
    10     9    13   ar
    11     9    21   ar
    12    10    14   ar
    13    10    21   ar
    14    11    15   ar
    15    11    22   ar
    16    12    16   ar
    17    12    22   ar
    18    13    23   ar
    19    14    23   ar
    20    15    24   ar
    21    16    24   ar
    22    17    25    1
    23    18    19    1
    24    18    27    1
    25    19    29    1
    26    20    25    1
    27    21    26    1
    28    22    26    1
    29    23    28    1
    30    24    29    1
    31    25    26    1
    32     1    30    1
    33     1    31    1
    34     1    32    1
    35     2    33    1
    36     2    34    1
    37     2    35    1
    38     3    36    1
    39     3    37    1
    40     3    38    1
    41     4    39    1
    42     5    40    1
    43     6    41    1
    44     7    42    1
    45     8    43    1
    46     9    44    1
    47    10    45    1
    48    11    46    1
    49    12    47    1
    50    13    48    1
    51    14    49    1
    52    15    50    1
    53    16    51    1
    54    17    52    1
    55    17    53    1
    56    18    54    1
    57    18    55    1
    58    19    56    1
    59    19    57    1
    60    25    58    1
    61    26    59    1
    62    27    60    1
    63    28    61    1
@<TRIPOS>SUBSTRUCTURE
     1 <0>         1 TEMP              0 ****  ****    0 ROOT

