
##########                                Name:        BMI_301_2OJ9
##########                    Molecular_Weight:             397.439
##########                DOCK_Rotatable_Bonds:                   5
##########                       Formal_Charge:         0.000199959
##########                     HBond_Acceptors:                   8
##########                        HBond_Donors:                   3
##########                         Heavy_Atoms:                  30
##########                            HA_RMSDs:               0.852
##########                            HA_RMSDh:               0.852
##########                            HA_RMSDm:               0.837
##########                          Grid_Score:          -53.494637
##########                     Grid_vdw_energy:          -52.426422
##########                      Grid_es_energy:           -1.068216
##########           Internal_energy_repulsive:           16.713348

@<TRIPOS>MOLECULE
BMI_301_2OJ9
 49 53 1 0 0
SMALL
USER_CHARGES


@<TRIPOS>ATOM
      1 C1          6.0070   -6.7316   24.3170 C.3     1  <0>        -0.0378
      2 C2          8.5818   -3.4328   24.1463 C.ar    1  <0>        -0.0586
      3 C3          9.2872   -4.2911   23.2935 C.ar    1  <0>        -0.0436
      4 C4          7.5350   -2.7393   23.5967 C.ar    1  <0>        -0.0388
      5 C5          3.7431   -2.5179   19.6895 C.2     1  <0>        -0.0261
      6 C6          3.0547   -2.7935   18.5702 C.2     1  <0>        -0.0017
      7 C7          8.9013   -4.4303   21.9419 C.ar    1  <0>         0.0279
      8 C8          7.6278  -12.9702   23.0154 C.2     1  <0>         0.0434
      9 C9          6.9597  -11.7940   23.4369 C.2     1  <0>         0.0209
     10 C10         6.4114   -8.8985   23.2819 C.ar    1  <0>        -0.0352
     11 C11         5.7805   -9.2729   21.0945 C.ar    1  <0>        -0.0127
     12 C12         7.5086  -11.6069   21.3327 C.2     1  <0>         0.0921
     13 C13         5.9985   -2.1748   21.7037 C.3     1  <0>         0.0515
     14 C14         5.9449   -7.6804   23.1631 C.ar    1  <0>        -0.0254
     15 C15         7.2008   -2.8959   22.2690 C.ar    1  <0>         0.0582
     16 C16         4.1762   -3.5927   20.4857 C.2     1  <0>         0.0442
     17 C17         6.3491   -9.6906   22.2409 C.ar    1  <0>         0.0414
     18 C18         5.2796   -7.9660   21.0353 C.ar    1  <0>         0.0891
     19 C19         3.8887   -4.8848   19.9597 C.2     1  <0>         0.0977
     20 C20         5.3818   -7.2215   22.0621 C.ar    1  <0>         0.0612
     21 C21         3.1733   -5.0828   18.6885 C.2     1  <0>         0.2530
     22 C22         4.3962   -6.0396   20.6476 C.2     1  <0>         0.1377
     23 N1          2.7713   -3.9885   18.0663 N.am    1  <0>        -0.2878
     24 N2          4.8642   -5.9933   21.7739 N.pl3   1  <0>        -0.2969
     25 N3          7.9724  -12.8174   21.6931 N.2     1  <0>        -0.2462
     26 N4          7.8771   -3.7388   21.4482 N.ar    1  <0>        -0.2583
     27 N5          4.6529   -7.1936   20.0982 N.2     1  <0>        -0.2297
     28 N6          4.9097   -3.2784   21.6888 N.pl3   1  <0>        -0.3375
     29 N7          6.9004  -10.9758   22.3414 N.pl3   1  <0>        -0.2652
     30 O1          2.8959   -6.2859   18.2719 O.2     1  <0>        -0.2697
     31 H1          6.9489   -6.1647   24.2760 H       1  <0>         0.0278
     32 H2          5.1574   -6.0349   24.2647 H       1  <0>         0.0278
     33 H3          5.9604   -7.2970   25.2594 H       1  <0>         0.0278
     34 H4          8.8497   -3.3226   25.1867 H       1  <0>         0.0619
     35 H5         10.1309   -4.8495   23.6713 H       1  <0>         0.0633
     36 H6          6.9640   -2.0605   24.2130 H       1  <0>         0.0636
     37 H7          3.9585   -1.4977   19.9708 H       1  <0>         0.0649
     38 H8          2.6883   -1.9430   18.0145 H       1  <0>         0.0783
     39 H9          9.4451   -5.1076   21.3001 H       1  <0>         0.0829
     40 H10         7.8312  -13.8368   23.6269 H       1  <0>         0.0843
     41 H11         6.5746  -11.5851   24.4241 H       1  <0>         0.0803
     42 H12         6.8363   -9.2407   24.2140 H       1  <0>         0.0639
     43 H13         5.7121   -9.9301   20.2401 H       1  <0>         0.0658
     44 H14         7.6156  -11.1926   20.3411 H       1  <0>         0.1006
     45 H15         5.7040   -1.3204   22.3308 H       1  <0>         0.0526
     46 H16         6.1956   -1.7833   20.6949 H       1  <0>         0.0526
     47 H17         2.2528   -4.0607   17.2142 H       1  <0>         0.1546
     48 H18         4.8675   -5.1964   22.3779 H       1  <0>         0.1536
     49 H19         5.3770   -4.1233   21.9493 H       1  <0>         0.1465
@<TRIPOS>BOND
     1     1    14    1
     2     2     3   ar
     3     2     4   ar
     4     3     7   ar
     5     4    15   ar
     6     5     6    2
     7     5    16    1
     8     6    23    1
     9     7    26   ar
    10     8     9    2
    11     8    25    1
    12     9    29    1
    13    10    14   ar
    14    10    17   ar
    15    11    17   ar
    16    11    18   ar
    17    12    25    2
    18    12    29    1
    19    13    15    1
    20    13    28    1
    21    14    20   ar
    22    15    26   ar
    23    16    19    2
    24    16    28    1
    25    17    29    1
    26    18    20   ar
    27    18    27    1
    28    19    21    1
    29    19    22    1
    30    20    24    1
    31    21    23   am
    32    21    30    2
    33    22    24    1
    34    22    27    2
    35     1    31    1
    36     1    32    1
    37     1    33    1
    38     2    34    1
    39     3    35    1
    40     4    36    1
    41     5    37    1
    42     6    38    1
    43     7    39    1
    44     8    40    1
    45     9    41    1
    46    10    42    1
    47    11    43    1
    48    12    44    1
    49    13    45    1
    50    13    46    1
    51    23    47    1
    52    24    48    1
    53    28    49    1
@<TRIPOS>SUBSTRUCTURE
     1 <0>         1 TEMP              0 ****  ****    0 ROOT

