
##########                                Name:        BMI_301_2OJ9
##########                    Molecular_Weight:             397.439
##########                DOCK_Rotatable_Bonds:                   5
##########                       Formal_Charge:         0.000199959
##########                     HBond_Acceptors:                   8
##########                        HBond_Donors:                   3
##########                         Heavy_Atoms:                  30
##########                            HA_RMSDs:               0.598
##########                            HA_RMSDh:               0.598
##########                            HA_RMSDm:               0.598
##########                          Grid_Score:          -59.084198
##########                     Grid_vdw_energy:          -57.824368
##########                      Grid_es_energy:           -1.259829
##########           Internal_energy_repulsive:           20.444572

@<TRIPOS>MOLECULE
BMI_301_2OJ9
 49 53 1 0 0
SMALL
USER_CHARGES


@<TRIPOS>ATOM
      1 C1          6.7422   -7.1948   23.8640 C.3     1  <0>        -0.0378
      2 C2          8.9148   -3.6636   24.4109 C.ar    1  <0>        -0.0586
      3 C3          9.5445   -4.6094   23.5920 C.ar    1  <0>        -0.0436
      4 C4          7.8831   -2.9537   23.8539 C.ar    1  <0>        -0.0388
      5 C5          4.1112   -2.5526   19.9353 C.2     1  <0>        -0.0261
      6 C6          3.3905   -2.6936   18.8112 C.2     1  <0>        -0.0017
      7 C7          9.1012   -4.8141   22.2667 C.ar    1  <0>         0.0279
      8 C8          6.7085  -13.6290   22.5175 C.2     1  <0>         0.0434
      9 C9          6.4259  -12.3380   23.0284 C.2     1  <0>         0.0209
     10 C10         6.4356   -9.3959   22.8683 C.ar    1  <0>        -0.0352
     11 C11         5.2326   -9.6251   20.9129 C.ar    1  <0>        -0.0127
     12 C12         6.4338  -12.2736   20.8468 C.2     1  <0>         0.0921
     13 C13         6.3053   -2.4326   21.9826 C.3     1  <0>         0.0515
     14 C14         6.2118   -8.1070   22.8046 C.ar    1  <0>        -0.0254
     15 C15         7.4915   -3.1770   22.5517 C.ar    1  <0>         0.0582
     16 C16         4.4580   -3.7108   20.6528 C.2     1  <0>         0.0442
     17 C17         5.9641  -10.1550   21.9109 C.ar    1  <0>         0.0414
     18 C18         5.0086   -8.2422   20.9111 C.ar    1  <0>         0.0891
     19 C19         4.0551   -4.9360   20.0481 C.2     1  <0>         0.0977
     20 C20         5.5048   -7.5380   21.8474 C.ar    1  <0>         0.0612
     21 C21         3.3127   -4.9875   18.7780 C.2     1  <0>         0.2530
     22 C22         4.4682   -6.1729   20.6511 C.2     1  <0>         0.1377
     23 N1          3.0003   -3.8240   18.2348 N.am    1  <0>        -0.2878
     24 N2          5.1936   -6.2281   21.6311 N.pl3   1  <0>        -0.2969
     25 N3          6.7203  -13.5540   21.1447 N.2     1  <0>        -0.2462
     26 N4          8.0940   -4.1038   21.7647 N.ar    1  <0>        -0.2583
     27 N5          4.3446   -7.3538   20.1128 N.2     1  <0>        -0.2297
     28 N6          5.2277   -3.5408   21.8623 N.pl3   1  <0>        -0.3375
     29 N7          6.2504  -11.5273   21.9398 N.pl3   1  <0>        -0.2652
     30 O1          2.9288   -6.1322   18.2881 O.2     1  <0>        -0.2697
     31 H1          7.7412   -6.8370   23.5740 H       1  <0>         0.0278
     32 H2          6.0650   -6.3359   23.9808 H       1  <0>         0.0278
     33 H3          6.8106   -7.7402   24.8167 H       1  <0>         0.0278
     34 H4          9.2271   -3.5015   25.4321 H       1  <0>         0.0619
     35 H5         10.3736   -5.1852   23.9760 H       1  <0>         0.0633
     36 H6          7.3698   -2.2088   24.4440 H       1  <0>         0.0636
     37 H7          4.4163   -1.5754   20.2792 H       1  <0>         0.0649
     38 H8          3.0932   -1.7799   18.3180 H       1  <0>         0.0783
     39 H9          9.5866   -5.5578   21.6520 H       1  <0>         0.0829
     40 H10         6.8843  -14.5182   23.1048 H       1  <0>         0.0843
     41 H11         6.3619  -12.0514   24.0677 H       1  <0>         0.0803
     42 H12         6.9944   -9.8215   23.6887 H       1  <0>         0.0639
     43 H13         4.8278  -10.2514   20.1317 H       1  <0>         0.0658
     44 H14         6.3604  -11.8925   19.8389 H       1  <0>         0.1006
     45 H15         5.9793   -1.6177   22.6458 H       1  <0>         0.0526
     46 H16         6.5373   -1.9822   21.0063 H       1  <0>         0.0526
     47 H17         2.4690   -3.7950   17.3881 H       1  <0>         0.1546
     48 H18         5.5046   -5.4509   22.1781 H       1  <0>         0.1536
     49 H19         5.7119   -4.4051   21.9986 H       1  <0>         0.1465
@<TRIPOS>BOND
     1     1    14    1
     2     2     3   ar
     3     2     4   ar
     4     3     7   ar
     5     4    15   ar
     6     5     6    2
     7     5    16    1
     8     6    23    1
     9     7    26   ar
    10     8     9    2
    11     8    25    1
    12     9    29    1
    13    10    14   ar
    14    10    17   ar
    15    11    17   ar
    16    11    18   ar
    17    12    25    2
    18    12    29    1
    19    13    15    1
    20    13    28    1
    21    14    20   ar
    22    15    26   ar
    23    16    19    2
    24    16    28    1
    25    17    29    1
    26    18    20   ar
    27    18    27    1
    28    19    21    1
    29    19    22    1
    30    20    24    1
    31    21    23   am
    32    21    30    2
    33    22    24    1
    34    22    27    2
    35     1    31    1
    36     1    32    1
    37     1    33    1
    38     2    34    1
    39     3    35    1
    40     4    36    1
    41     5    37    1
    42     6    38    1
    43     7    39    1
    44     8    40    1
    45     9    41    1
    46    10    42    1
    47    11    43    1
    48    12    44    1
    49    13    45    1
    50    13    46    1
    51    23    47    1
    52    24    48    1
    53    28    49    1
@<TRIPOS>SUBSTRUCTURE
     1 <0>         1 TEMP              0 ****  ****    0 ROOT

