
##########                                Name:        BMI_301_2OJ9
##########                    Molecular_Weight:             397.439
##########                DOCK_Rotatable_Bonds:                   5
##########                       Formal_Charge:         0.000199959
##########                     HBond_Acceptors:                   8
##########                        HBond_Donors:                   3
##########                         Heavy_Atoms:                  30
##########                            HA_RMSDs:               0.562
##########                            HA_RMSDh:               0.562
##########                            HA_RMSDm:               0.562
##########                          Grid_Score:          -60.797276
##########                     Grid_vdw_energy:          -59.660156
##########                      Grid_es_energy:           -1.137118
##########           Internal_energy_repulsive:           18.439775

@<TRIPOS>MOLECULE
BMI_301_2OJ9
 49 53 1 0 0
SMALL
USER_CHARGES


@<TRIPOS>ATOM
      1 C1          6.2084   -7.0822   24.2436 C.3     1  <0>        -0.0378
      2 C2          8.9124   -3.9714   24.5107 C.ar    1  <0>        -0.0586
      3 C3          9.4218   -4.9971   23.7044 C.ar    1  <0>        -0.0436
      4 C4          7.9915   -3.1341   23.9367 C.ar    1  <0>        -0.0388
      5 C5          4.1741   -2.3172   20.0817 C.2     1  <0>        -0.0261
      6 C6          3.4415   -2.4290   18.9620 C.2     1  <0>        -0.0017
      7 C7          8.9728   -5.1488   22.3739 C.ar    1  <0>         0.0279
      8 C8          6.8908  -13.3803   22.4902 C.2     1  <0>         0.0434
      9 C9          6.4312  -12.1523   23.0270 C.2     1  <0>         0.0209
     10 C10         6.2446   -9.2131   23.0654 C.ar    1  <0>        -0.0352
     11 C11         5.4221   -9.3616   20.9149 C.ar    1  <0>        -0.0127
     12 C12         6.8037  -11.9199   20.8890 C.2     1  <0>         0.0921
     13 C13         6.5218   -2.4190   22.0416 C.3     1  <0>         0.0515
     14 C14         5.9404   -7.9394   23.0481 C.ar    1  <0>        -0.0254
     15 C15         7.5910   -3.3110   22.6300 C.ar    1  <0>         0.0582
     16 C16         4.5024   -3.4914   20.7818 C.2     1  <0>         0.0442
     17 C17         6.0053   -9.9223   21.9908 C.ar    1  <0>         0.0414
     18 C18         5.0999   -7.9992   20.9645 C.ar    1  <0>         0.0891
     19 C19         4.0692   -4.7001   20.1652 C.2     1  <0>         0.0977
     20 C20         5.3713   -7.3415   22.0193 C.ar    1  <0>         0.0612
     21 C21         3.3157   -4.7201   18.9008 C.2     1  <0>         0.2530
     22 C22         4.4611   -5.9529   20.7494 C.2     1  <0>         0.1377
     23 N1          3.0233   -3.5437   18.3748 N.am    1  <0>        -0.2878
     24 N2          5.0063   -6.0402   21.8379 N.pl3   1  <0>        -0.2969
     25 N3          7.1294  -13.1994   21.1482 N.2     1  <0>        -0.2462
     26 N4          8.0756   -4.3141   21.8551 N.ar    1  <0>        -0.2583
     27 N5          4.5214   -7.0933   20.1206 N.2     1  <0>        -0.2297
     28 N6          5.2852   -3.3526   21.9869 N.pl3   1  <0>        -0.3375
     29 N7          6.3831  -11.2725   21.9797 N.pl3   1  <0>        -0.2652
     30 O1          2.9040   -5.8503   18.3999 O.2     1  <0>        -0.2697
     31 H1          7.2134   -6.6423   24.1621 H       1  <0>         0.0278
     32 H2          5.4594   -6.2782   24.2935 H       1  <0>         0.0278
     33 H3          6.1496   -7.6955   25.1549 H       1  <0>         0.0278
     34 H4          9.2299   -3.8463   25.5354 H       1  <0>         0.0619
     35 H5         10.1620   -5.6755   24.1021 H       1  <0>         0.0633
     36 H6          7.5739   -2.3243   24.5166 H       1  <0>         0.0636
     37 H7          4.5023   -1.3510   20.4352 H       1  <0>         0.0649
     38 H8          3.1595   -1.5032   18.4827 H       1  <0>         0.0783
     39 H9          9.3633   -5.9538   21.7689 H       1  <0>         0.0829
     40 H10         7.0298  -14.2995   23.0399 H       1  <0>         0.0843
     41 H11         6.1711  -11.9509   24.0557 H       1  <0>         0.0803
     42 H12         6.6815   -9.6668   23.9428 H       1  <0>         0.0639
     43 H13         5.2076   -9.9484   20.0339 H       1  <0>         0.0658
     44 H14         6.8741  -11.4677   19.9107 H       1  <0>         0.1006
     45 H15         6.3374   -1.5351   22.6698 H       1  <0>         0.0526
     46 H16         6.8008   -2.0535   21.0423 H       1  <0>         0.0526
     47 H17         2.4859   -3.4930   17.5329 H       1  <0>         0.1546
     48 H18         5.1584   -5.2906   22.4821 H       1  <0>         0.1536
     49 H19         5.6284   -4.2689   22.1936 H       1  <0>         0.1465
@<TRIPOS>BOND
     1     1    14    1
     2     2     3   ar
     3     2     4   ar
     4     3     7   ar
     5     4    15   ar
     6     5     6    2
     7     5    16    1
     8     6    23    1
     9     7    26   ar
    10     8     9    2
    11     8    25    1
    12     9    29    1
    13    10    14   ar
    14    10    17   ar
    15    11    17   ar
    16    11    18   ar
    17    12    25    2
    18    12    29    1
    19    13    15    1
    20    13    28    1
    21    14    20   ar
    22    15    26   ar
    23    16    19    2
    24    16    28    1
    25    17    29    1
    26    18    20   ar
    27    18    27    1
    28    19    21    1
    29    19    22    1
    30    20    24    1
    31    21    23   am
    32    21    30    2
    33    22    24    1
    34    22    27    2
    35     1    31    1
    36     1    32    1
    37     1    33    1
    38     2    34    1
    39     3    35    1
    40     4    36    1
    41     5    37    1
    42     6    38    1
    43     7    39    1
    44     8    40    1
    45     9    41    1
    46    10    42    1
    47    11    43    1
    48    12    44    1
    49    13    45    1
    50    13    46    1
    51    23    47    1
    52    24    48    1
    53    28    49    1
@<TRIPOS>SUBSTRUCTURE
     1 <0>         1 TEMP              0 ****  ****    0 ROOT

