
##########                                Name:        BMI_301_2OJ9
##########                    Molecular_Weight:             397.439
##########                DOCK_Rotatable_Bonds:                   5
##########                       Formal_Charge:         0.000199959
##########                     HBond_Acceptors:                   8
##########                        HBond_Donors:                   3
##########                         Heavy_Atoms:                  30
##########                            HA_RMSDs:               0.711
##########                            HA_RMSDh:               0.711
##########                            HA_RMSDm:               0.706
##########                          Grid_Score:          -60.661522
##########                     Grid_vdw_energy:          -59.430168
##########                      Grid_es_energy:           -1.231353
##########           Internal_energy_repulsive:           20.481466

@<TRIPOS>MOLECULE
BMI_301_2OJ9
 49 53 1 0 0
SMALL
USER_CHARGES


@<TRIPOS>ATOM
      1 C1          6.5522   -7.1266   24.2633 C.3     1  <0>        -0.0378
      2 C2          9.2128   -4.0605   24.4923 C.ar    1  <0>        -0.0586
      3 C3          9.6141   -5.0619   23.5990 C.ar    1  <0>        -0.0436
      4 C4          8.2481   -3.1915   24.0531 C.ar    1  <0>        -0.0388
      5 C5          4.2099   -2.2290   20.4476 C.2     1  <0>        -0.0261
      6 C6          3.4554   -2.2994   19.3391 C.2     1  <0>        -0.0017
      7 C7          9.0195   -5.1590   22.3215 C.ar    1  <0>         0.0279
      8 C8          6.9247  -13.4000   22.3517 C.2     1  <0>         0.0434
      9 C9          6.5711  -12.1657   22.9509 C.2     1  <0>         0.0209
     10 C10         6.4240   -9.2349   23.0515 C.ar    1  <0>        -0.0352
     11 C11         5.4063   -9.3216   20.9827 C.ar    1  <0>        -0.0127
     12 C12         6.6645  -11.9243   20.7836 C.2     1  <0>         0.0921
     13 C13         6.5910   -2.3895   22.3580 C.3     1  <0>         0.0515
     14 C14         6.1539   -7.9537   23.0832 C.ar    1  <0>        -0.0254
     15 C15         7.7038   -3.3153   22.7932 C.ar    1  <0>         0.0582
     16 C16         4.5576   -3.4286   21.0930 C.2     1  <0>         0.0442
     17 C17         6.0692   -9.9173   21.9915 C.ar    1  <0>         0.0414
     18 C18         5.1268   -7.9526   21.0841 C.ar    1  <0>         0.0891
     19 C19         4.1174   -4.6138   20.4369 C.2     1  <0>         0.0977
     20 C20         5.5103   -7.3221   22.1205 C.ar    1  <0>         0.0612
     21 C21         3.3387   -4.5869   19.1880 C.2     1  <0>         0.2530
     22 C22         4.5267   -5.8870   20.9620 C.2     1  <0>         0.1377
     23 N1          3.0304   -3.3918   18.7159 N.am    1  <0>        -0.2878
     24 N2          5.1657   -6.0088   21.9948 N.pl3   1  <0>        -0.2969
     25 N3          6.9889  -13.2135   20.9909 N.2     1  <0>        -0.2462
     26 N4          8.0843   -4.2950   21.9346 N.ar    1  <0>        -0.2583
     27 N5          4.4990   -7.0164   20.3115 N.2     1  <0>        -0.2297
     28 N6          5.3638   -3.3344   22.2868 N.pl3   1  <0>        -0.3375
     29 N7          6.4078  -11.2762   21.9236 N.pl3   1  <0>        -0.2652
     30 O1          2.9220   -5.6982   18.6502 O.2     1  <0>        -0.2697
     31 H1          7.5572   -6.7108   24.0980 H       1  <0>         0.0278
     32 H2          5.8328   -6.3049   24.3946 H       1  <0>         0.0278
     33 H3          6.5597   -7.7553   25.1659 H       1  <0>         0.0278
     34 H4          9.6428   -3.9771   25.4795 H       1  <0>         0.0619
     35 H5         10.3825   -5.7634   23.8885 H       1  <0>         0.0633
     36 H6          7.9096   -2.3987   24.7037 H       1  <0>         0.0636
     37 H7          4.5408   -1.2760   20.8332 H       1  <0>         0.0649
     38 H8          3.1596   -1.3566   18.9034 H       1  <0>         0.0783
     39 H9          9.3282   -5.9458   21.6492 H       1  <0>         0.0829
     40 H10         7.1115  -14.3269   22.8735 H       1  <0>         0.0843
     41 H11         6.4541  -11.9668   24.0059 H       1  <0>         0.0803
     42 H12         6.9261   -9.7161   23.8778 H       1  <0>         0.0639
     43 H13         5.0971   -9.8859   20.1153 H       1  <0>         0.0658
     44 H14         6.6168  -11.4656   19.8070 H       1  <0>         0.1006
     45 H15         6.4351   -1.5730   23.0785 H       1  <0>         0.0526
     46 H16         6.8047   -1.9253   21.3840 H       1  <0>         0.0526
     47 H17         2.4760   -3.3100   17.8877 H       1  <0>         0.1546
     48 H18         5.3957   -5.2757   22.6348 H       1  <0>         0.1536
     49 H19         5.7214   -4.2547   22.4452 H       1  <0>         0.1465
@<TRIPOS>BOND
     1     1    14    1
     2     2     3   ar
     3     2     4   ar
     4     3     7   ar
     5     4    15   ar
     6     5     6    2
     7     5    16    1
     8     6    23    1
     9     7    26   ar
    10     8     9    2
    11     8    25    1
    12     9    29    1
    13    10    14   ar
    14    10    17   ar
    15    11    17   ar
    16    11    18   ar
    17    12    25    2
    18    12    29    1
    19    13    15    1
    20    13    28    1
    21    14    20   ar
    22    15    26   ar
    23    16    19    2
    24    16    28    1
    25    17    29    1
    26    18    20   ar
    27    18    27    1
    28    19    21    1
    29    19    22    1
    30    20    24    1
    31    21    23   am
    32    21    30    2
    33    22    24    1
    34    22    27    2
    35     1    31    1
    36     1    32    1
    37     1    33    1
    38     2    34    1
    39     3    35    1
    40     4    36    1
    41     5    37    1
    42     6    38    1
    43     7    39    1
    44     8    40    1
    45     9    41    1
    46    10    42    1
    47    11    43    1
    48    12    44    1
    49    13    45    1
    50    13    46    1
    51    23    47    1
    52    24    48    1
    53    28    49    1
@<TRIPOS>SUBSTRUCTURE
     1 <0>         1 TEMP              0 ****  ****    0 ROOT

