
##########                                Name:        BMI_301_2OJ9
##########                    Molecular_Weight:             397.439
##########                DOCK_Rotatable_Bonds:                   5
##########                       Formal_Charge:         0.000199959
##########                     HBond_Acceptors:                   8
##########                        HBond_Donors:                   3
##########                         Heavy_Atoms:                  30
##########                            HA_RMSDs:               0.782
##########                            HA_RMSDh:               0.782
##########                            HA_RMSDm:               0.770
##########                          Grid_Score:          -58.442612
##########                     Grid_vdw_energy:          -57.586311
##########                      Grid_es_energy:           -0.856301
##########           Internal_energy_repulsive:           19.176920

@<TRIPOS>MOLECULE
BMI_301_2OJ9
 49 53 1 0 0
SMALL
USER_CHARGES


@<TRIPOS>ATOM
      1 C1          6.4369   -7.1753   24.2614 C.3     1  <0>        -0.0378
      2 C2          8.8921   -3.8666   24.4681 C.ar    1  <0>        -0.0586
      3 C3          9.4905   -4.7761   23.5870 C.ar    1  <0>        -0.0436
      4 C4          7.8614   -3.1121   23.9711 C.ar    1  <0>        -0.0388
      5 C5          4.0006   -2.5883   20.1261 C.2     1  <0>        -0.0261
      6 C6          3.3070   -2.7525   18.9882 C.2     1  <0>        -0.0017
      7 C7          9.0183   -4.9022   22.2618 C.ar    1  <0>         0.0279
      8 C8          7.4857  -13.4329   22.5672 C.2     1  <0>         0.0434
      9 C9          6.9949  -12.2172   23.1046 C.2     1  <0>         0.0209
     10 C10         6.5762   -9.3145   23.1062 C.ar    1  <0>        -0.0352
     11 C11         5.7231   -9.5371   20.9740 C.ar    1  <0>        -0.0127
     12 C12         7.1901  -12.0314   20.9386 C.2     1  <0>         0.0921
     13 C13         6.2562   -2.4670   22.1627 C.3     1  <0>         0.0515
     14 C14         6.1971   -8.0611   23.0809 C.ar    1  <0>        -0.0254
     15 C15         7.4410   -3.2588   22.6669 C.ar    1  <0>         0.0582
     16 C16         4.4042   -3.7360   20.8307 C.2     1  <0>         0.0442
     17 C17         6.3586  -10.0495   22.0443 C.ar    1  <0>         0.0414
     18 C18         5.3222   -8.1954   21.0150 C.ar    1  <0>         0.0891
     19 C19         4.0840   -4.9724   20.2000 C.2     1  <0>         0.0977
     20 C20         5.5743   -7.5101   22.0570 C.ar    1  <0>         0.0612
     21 C21         3.3658   -5.0461   18.9172 C.2     1  <0>         0.2530
     22 C22         4.5600   -6.1928   20.7900 C.2     1  <0>         0.1377
     23 N1          2.9935   -3.8941   18.3875 N.am    1  <0>        -0.2878
     24 N2          5.1300   -6.2348   21.8685 N.pl3   1  <0>        -0.2969
     25 N3          7.6108  -13.2810   21.2064 N.2     1  <0>        -0.2462
     26 N4          8.0132   -4.1507   21.8192 N.ar    1  <0>        -0.2583
     27 N5          4.6755   -7.3353   20.1728 N.2     1  <0>        -0.2297
     28 N6          5.1435   -3.5413   22.0553 N.pl3   1  <0>        -0.3375
     29 N7          6.8150  -11.3753   22.0406 N.pl3   1  <0>        -0.2652
     30 O1          3.0579   -6.2031   18.4028 O.2     1  <0>        -0.2697
     31 H1          7.4125   -6.6782   24.1553 H       1  <0>         0.0278
     32 H2          5.6429   -6.4161   24.3172 H       1  <0>         0.0278
     33 H3          6.4317   -7.7798   25.1803 H       1  <0>         0.0278
     34 H4          9.2267   -3.7646   25.4900 H       1  <0>         0.0619
     35 H5         10.3175   -5.3842   23.9226 H       1  <0>         0.0633
     36 H6          7.3717   -2.3926   24.6105 H       1  <0>         0.0636
     37 H7          4.2420   -1.6007   20.4905 H       1  <0>         0.0649
     38 H8          2.9640   -1.8498   18.5047 H       1  <0>         0.0783
     39 H9          9.4796   -5.6188   21.5984 H       1  <0>         0.0829
     40 H10         7.7208  -14.3247   23.1293 H       1  <0>         0.0843
     41 H11         6.8017  -11.9988   24.1444 H       1  <0>         0.0803
     42 H12         7.0556   -9.7311   23.9797 H       1  <0>         0.0639
     43 H13         5.5268  -10.1461   20.1040 H       1  <0>         0.0658
     44 H14         7.1591  -11.6070   19.9460 H       1  <0>         0.1006
     45 H15         5.9788   -1.6614   22.8585 H       1  <0>         0.0526
     46 H16         6.4643   -1.9973   21.1901 H       1  <0>         0.0526
     47 H17         2.4747   -3.8822   17.5327 H       1  <0>         0.1546
     48 H18         5.2499   -5.4699   22.5013 H       1  <0>         0.1536
     49 H19         5.5922   -4.4153   22.2424 H       1  <0>         0.1465
@<TRIPOS>BOND
     1     1    14    1
     2     2     3   ar
     3     2     4   ar
     4     3     7   ar
     5     4    15   ar
     6     5     6    2
     7     5    16    1
     8     6    23    1
     9     7    26   ar
    10     8     9    2
    11     8    25    1
    12     9    29    1
    13    10    14   ar
    14    10    17   ar
    15    11    17   ar
    16    11    18   ar
    17    12    25    2
    18    12    29    1
    19    13    15    1
    20    13    28    1
    21    14    20   ar
    22    15    26   ar
    23    16    19    2
    24    16    28    1
    25    17    29    1
    26    18    20   ar
    27    18    27    1
    28    19    21    1
    29    19    22    1
    30    20    24    1
    31    21    23   am
    32    21    30    2
    33    22    24    1
    34    22    27    2
    35     1    31    1
    36     1    32    1
    37     1    33    1
    38     2    34    1
    39     3    35    1
    40     4    36    1
    41     5    37    1
    42     6    38    1
    43     7    39    1
    44     8    40    1
    45     9    41    1
    46    10    42    1
    47    11    43    1
    48    12    44    1
    49    13    45    1
    50    13    46    1
    51    23    47    1
    52    24    48    1
    53    28    49    1
@<TRIPOS>SUBSTRUCTURE
     1 <0>         1 TEMP              0 ****  ****    0 ROOT

