
##########                                Name:        BMI_301_2OJ9
##########                    Molecular_Weight:             397.439
##########                DOCK_Rotatable_Bonds:                   5
##########                       Formal_Charge:         0.000199959
##########                     HBond_Acceptors:                   8
##########                        HBond_Donors:                   3
##########                         Heavy_Atoms:                  30
##########                            HA_RMSDs:               0.547
##########                            HA_RMSDh:               0.547
##########                            HA_RMSDm:               0.547
##########                          Grid_Score:          -60.851791
##########                     Grid_vdw_energy:          -59.651684
##########                      Grid_es_energy:           -1.200109
##########           Internal_energy_repulsive:           19.923574

@<TRIPOS>MOLECULE
BMI_301_2OJ9
 49 53 1 0 0
SMALL
USER_CHARGES


@<TRIPOS>ATOM
      1 C1          6.2452   -7.0025   24.2147 C.3     1  <0>        -0.0378
      2 C2          8.8791   -3.6105   24.5249 C.ar    1  <0>        -0.0586
      3 C3          9.4491   -4.5679   23.6763 C.ar    1  <0>        -0.0436
      4 C4          7.8662   -2.8483   24.0039 C.ar    1  <0>        -0.0388
      5 C5          4.0998   -2.2713   20.0849 C.2     1  <0>        -0.0261
      6 C6          3.4108   -2.3901   18.9386 C.2     1  <0>        -0.0017
      7 C7          8.9673   -4.7311   22.3587 C.ar    1  <0>         0.0279
      8 C8          6.8676  -13.3166   22.5542 C.2     1  <0>         0.0434
      9 C9          6.5268  -12.0503   23.0909 C.2     1  <0>         0.0209
     10 C10         6.2161   -9.1531   23.0726 C.ar    1  <0>        -0.0352
     11 C11         5.3313   -9.3247   20.9487 C.ar    1  <0>        -0.0127
     12 C12         6.4975  -11.9504   20.9108 C.2     1  <0>         0.0921
     13 C13         6.2697   -2.2291   22.1789 C.3     1  <0>         0.0515
     14 C14         5.9307   -7.8752   23.0420 C.ar    1  <0>        -0.0254
     15 C15         7.4357   -3.0326   22.7078 C.ar    1  <0>         0.0582
     16 C16         4.4201   -3.4429   20.7931 C.2     1  <0>         0.0442
     17 C17         5.9359   -9.8764   22.0174 C.ar    1  <0>         0.0414
     18 C18         5.0312   -7.9568   20.9839 C.ar    1  <0>         0.0891
     19 C19         4.0283   -4.6558   20.1573 C.2     1  <0>         0.0977
     20 C20         5.3420   -7.2858   22.0193 C.ar    1  <0>         0.0612
     21 C21         3.3223   -4.6827   18.8658 C.2     1  <0>         0.2530
     22 C22         4.4176   -5.9046   20.7516 C.2     1  <0>         0.1377
     23 N1          3.0316   -3.5089   18.3330 N.am    1  <0>        -0.2878
     24 N2          4.9918   -5.9822   21.8259 N.pl3   1  <0>        -0.2969
     25 N3          6.8541  -13.2189   21.1828 N.2     1  <0>        -0.2462
     26 N4          7.9801   -3.9704   21.8920 N.ar    1  <0>        -0.2583
     27 N5          4.4430   -7.0562   20.1411 N.2     1  <0>        -0.2297
     28 N6          5.1557   -3.2967   22.0266 N.pl3   1  <0>        -0.3375
     29 N7          6.2929  -11.2323   22.0189 N.pl3   1  <0>        -0.2652
     30 O1          2.9467   -5.8172   18.3466 O.2     1  <0>        -0.2697
     31 H1          7.2540   -6.5797   24.0977 H       1  <0>         0.0278
     32 H2          5.5100   -6.1862   24.2716 H       1  <0>         0.0278
     33 H3          6.2027   -7.5995   25.1376 H       1  <0>         0.0278
     34 H4          9.2213   -3.4792   25.5409 H       1  <0>         0.0619
     35 H5         10.2615   -5.1847   24.0313 H       1  <0>         0.0633
     36 H6          7.3987   -2.0925   24.6177 H       1  <0>         0.0636
     37 H7          4.4000   -1.3015   20.4532 H       1  <0>         0.0649
     38 H8          3.1325   -1.4670   18.4521 H       1  <0>         0.0783
     39 H9          9.4063   -5.4840   21.7208 H       1  <0>         0.0829
     40 H10         7.0979  -14.2048   23.1237 H       1  <0>         0.0843
     41 H11         6.4643  -11.7842   24.1357 H       1  <0>         0.0803
     42 H12         6.6705   -9.5988   23.9451 H       1  <0>         0.0639
     43 H13         5.0833   -9.9227   20.0842 H       1  <0>         0.0658
     44 H14         6.3890  -11.5574   19.9106 H       1  <0>         0.1006
     45 H15         5.9759   -1.4303   22.8757 H       1  <0>         0.0526
     46 H16         6.5080   -1.7492   21.2182 H       1  <0>         0.0526
     47 H17         2.5249   -3.4633   17.4721 H       1  <0>         0.1546
     48 H18         5.1732   -5.2245   22.4527 H       1  <0>         0.1536
     49 H19         5.6024   -4.1779   22.1814 H       1  <0>         0.1465
@<TRIPOS>BOND
     1     1    14    1
     2     2     3   ar
     3     2     4   ar
     4     3     7   ar
     5     4    15   ar
     6     5     6    2
     7     5    16    1
     8     6    23    1
     9     7    26   ar
    10     8     9    2
    11     8    25    1
    12     9    29    1
    13    10    14   ar
    14    10    17   ar
    15    11    17   ar
    16    11    18   ar
    17    12    25    2
    18    12    29    1
    19    13    15    1
    20    13    28    1
    21    14    20   ar
    22    15    26   ar
    23    16    19    2
    24    16    28    1
    25    17    29    1
    26    18    20   ar
    27    18    27    1
    28    19    21    1
    29    19    22    1
    30    20    24    1
    31    21    23   am
    32    21    30    2
    33    22    24    1
    34    22    27    2
    35     1    31    1
    36     1    32    1
    37     1    33    1
    38     2    34    1
    39     3    35    1
    40     4    36    1
    41     5    37    1
    42     6    38    1
    43     7    39    1
    44     8    40    1
    45     9    41    1
    46    10    42    1
    47    11    43    1
    48    12    44    1
    49    13    45    1
    50    13    46    1
    51    23    47    1
    52    24    48    1
    53    28    49    1
@<TRIPOS>SUBSTRUCTURE
     1 <0>         1 TEMP              0 ****  ****    0 ROOT

