
##########                                Name:        BMI_301_2OJ9
##########                    Molecular_Weight:             397.439
##########                DOCK_Rotatable_Bonds:                   5
##########                       Formal_Charge:         0.000199959
##########                     HBond_Acceptors:                   8
##########                        HBond_Donors:                   3
##########                         Heavy_Atoms:                  30
##########                            HA_RMSDs:               1.021
##########                            HA_RMSDh:               1.021
##########                            HA_RMSDm:               0.973
##########                          Grid_Score:          -55.519276
##########                     Grid_vdw_energy:          -54.625225
##########                      Grid_es_energy:           -0.894050
##########           Internal_energy_repulsive:           21.505123

@<TRIPOS>MOLECULE
BMI_301_2OJ9
 49 53 1 0 0
SMALL
USER_CHARGES


@<TRIPOS>ATOM
      1 C1          7.3584   -7.3954   23.8363 C.3     1  <0>        -0.0378
      2 C2          8.9213   -3.7523   24.7962 C.ar    1  <0>        -0.0586
      3 C3          9.6962   -4.5153   23.9135 C.ar    1  <0>        -0.0436
      4 C4          7.8299   -3.1144   24.2667 C.ar    1  <0>        -0.0388
      5 C5          4.0803   -2.7994   20.3655 C.2     1  <0>        -0.0261
      6 C6          3.3355   -2.9522   19.2588 C.2     1  <0>        -0.0017
      7 C7          9.3327   -4.6204   22.5527 C.ar    1  <0>         0.0279
      8 C8          7.0641  -13.8466   22.7115 C.2     1  <0>         0.0434
      9 C9          7.0089  -12.5129   23.1865 C.2     1  <0>         0.0209
     10 C10         6.8413   -9.6175   22.9850 C.ar    1  <0>        -0.0352
     11 C11         5.3250   -9.8750   21.2652 C.ar    1  <0>        -0.0127
     12 C12         6.2132  -12.5976   21.1558 C.2     1  <0>         0.0921
     13 C13         6.2707   -2.5795   22.3837 C.3     1  <0>         0.0515
     14 C14         6.6389   -8.3255   22.9129 C.ar    1  <0>        -0.0254
     15 C15         7.5192   -3.2341   22.9295 C.ar    1  <0>         0.0582
     16 C16         4.4939   -3.9536   21.0535 C.2     1  <0>         0.0442
     17 C17         6.2003  -10.3932   22.1468 C.ar    1  <0>         0.0414
     18 C18         5.1348   -8.4872   21.2507 C.ar    1  <0>         0.0891
     19 C19         4.1252   -5.1846   20.4389 C.2     1  <0>         0.0977
     20 C20         5.7955   -7.7677   22.0660 C.ar    1  <0>         0.0612
     21 C21         3.3512   -5.2465   19.1883 C.2     1  <0>         0.2530
     22 C22         4.6051   -6.4128   21.0094 C.2     1  <0>         0.1377
     23 N1          2.9765   -4.0885   18.6737 N.am    1  <0>        -0.2878
     24 N2          5.4820   -6.4571   21.8571 N.pl3   1  <0>        -0.2969
     25 N3          6.5703  -13.8658   21.4284 N.2     1  <0>        -0.2462
     26 N4          8.2635   -3.9853   22.0791 N.ar    1  <0>        -0.2583
     27 N5          4.3673   -7.6063   20.5418 N.2     1  <0>        -0.2297
     28 N6          5.2887   -3.7712   22.2448 N.pl3   1  <0>        -0.3375
     29 N7          6.4566  -11.7713   22.1774 N.pl3   1  <0>        -0.2652
     30 O1          3.0013   -6.3982   18.6893 O.2     1  <0>        -0.2697
     31 H1          8.3030   -7.0751   23.3724 H       1  <0>         0.0278
     32 H2          6.7294   -6.5145   24.0326 H       1  <0>         0.0278
     33 H3          7.5721   -7.9119   24.7837 H       1  <0>         0.0278
     34 H4          9.1718   -3.6706   25.8437 H       1  <0>         0.0619
     35 H5         10.5763   -5.0260   24.2753 H       1  <0>         0.0633
     36 H6          7.2045   -2.5093   24.9065 H       1  <0>         0.0636
     37 H7          4.3543   -1.8160   20.7179 H       1  <0>         0.0649
     38 H8          2.9876   -2.0439   18.7894 H       1  <0>         0.0783
     39 H9          9.9311   -5.2248   21.8871 H       1  <0>         0.0829
     40 H10         7.4307  -14.7004   23.2619 H       1  <0>         0.0843
     41 H11         7.3367  -12.1537   24.1508 H       1  <0>         0.0803
     42 H12         7.5191  -10.0324   23.7164 H       1  <0>         0.0639
     43 H13         4.7821  -10.5143   20.5848 H       1  <0>         0.0658
     44 H14         5.7793  -12.2832   20.2181 H       1  <0>         0.1006
     45 H15         5.8827   -1.8093   23.0666 H       1  <0>         0.0526
     46 H16         6.4570   -2.0903   21.4163 H       1  <0>         0.0526
     47 H17         2.4215   -4.0680   17.8420 H       1  <0>         0.1546
     48 H18         5.8969   -5.6719   22.3168 H       1  <0>         0.1536
     49 H19         5.8499   -4.5950   22.3245 H       1  <0>         0.1465
@<TRIPOS>BOND
     1     1    14    1
     2     2     3   ar
     3     2     4   ar
     4     3     7   ar
     5     4    15   ar
     6     5     6    2
     7     5    16    1
     8     6    23    1
     9     7    26   ar
    10     8     9    2
    11     8    25    1
    12     9    29    1
    13    10    14   ar
    14    10    17   ar
    15    11    17   ar
    16    11    18   ar
    17    12    25    2
    18    12    29    1
    19    13    15    1
    20    13    28    1
    21    14    20   ar
    22    15    26   ar
    23    16    19    2
    24    16    28    1
    25    17    29    1
    26    18    20   ar
    27    18    27    1
    28    19    21    1
    29    19    22    1
    30    20    24    1
    31    21    23   am
    32    21    30    2
    33    22    24    1
    34    22    27    2
    35     1    31    1
    36     1    32    1
    37     1    33    1
    38     2    34    1
    39     3    35    1
    40     4    36    1
    41     5    37    1
    42     6    38    1
    43     7    39    1
    44     8    40    1
    45     9    41    1
    46    10    42    1
    47    11    43    1
    48    12    44    1
    49    13    45    1
    50    13    46    1
    51    23    47    1
    52    24    48    1
    53    28    49    1
@<TRIPOS>SUBSTRUCTURE
     1 <0>         1 TEMP              0 ****  ****    0 ROOT

