
##########                                Name:        BMI_301_2OJ9
##########                    Molecular_Weight:             397.439
##########                DOCK_Rotatable_Bonds:                   5
##########                       Formal_Charge:         0.000199959
##########                     HBond_Acceptors:                   8
##########                        HBond_Donors:                   3
##########                         Heavy_Atoms:                  30
##########                            HA_RMSDs:               0.870
##########                            HA_RMSDh:               0.870
##########                            HA_RMSDm:               0.832
##########                          Grid_Score:          -60.084316
##########                     Grid_vdw_energy:          -59.076836
##########                      Grid_es_energy:           -1.007482
##########           Internal_energy_repulsive:           19.343918

@<TRIPOS>MOLECULE
BMI_301_2OJ9
 49 53 1 0 0
SMALL
USER_CHARGES


@<TRIPOS>ATOM
      1 C1          6.6857   -7.1921   24.2084 C.3     1  <0>        -0.0378
      2 C2          8.9075   -3.0726   24.8734 C.ar    1  <0>        -0.0586
      3 C3          9.5595   -4.1294   24.2255 C.ar    1  <0>        -0.0436
      4 C4          7.8634   -2.4883   24.2046 C.ar    1  <0>        -0.0388
      5 C5          4.1402   -2.5393   20.2245 C.2     1  <0>        -0.0261
      6 C6          3.3921   -2.6796   19.1183 C.2     1  <0>        -0.0017
      7 C7          9.1252   -4.5637   22.9537 C.ar    1  <0>         0.0279
      8 C8          7.1345  -13.5505   22.5983 C.2     1  <0>         0.0434
      9 C9          6.7357  -12.3039   23.1409 C.2     1  <0>         0.0209
     10 C10         6.5821   -9.3599   23.1039 C.ar    1  <0>        -0.0352
     11 C11         5.5278   -9.5705   21.0625 C.ar    1  <0>        -0.0127
     12 C12         6.8996  -12.1361   20.9709 C.2     1  <0>         0.0921
     13 C13         6.2819   -2.3230   22.2722 C.3     1  <0>         0.0515
     14 C14         6.2839   -8.0849   23.0783 C.ar    1  <0>        -0.0254
     15 C15         7.4811   -2.9359   22.9587 C.ar    1  <0>         0.0582
     16 C16         4.5236   -3.6994   20.9200 C.2     1  <0>         0.0442
     17 C17         6.2228  -10.1013   22.0859 C.ar    1  <0>         0.0414
     18 C18         5.2196   -8.2045   21.1024 C.ar    1  <0>         0.0891
     19 C19         4.1234   -4.9242   20.3129 C.2     1  <0>         0.0977
     20 C20         5.6083   -7.5156   22.0989 C.ar    1  <0>         0.0612
     21 C21         3.3484   -4.9740   19.0623 C.2     1  <0>         0.2530
     22 C22         4.5710   -6.1608   20.8914 C.2     1  <0>         0.1377
     23 N1          3.0040   -3.8099   18.5403 N.am    1  <0>        -0.2878
     24 N2          5.2319   -6.2177   21.9159 N.pl3   1  <0>        -0.2969
     25 N3          7.2422  -13.4102   21.2348 N.2     1  <0>        -0.2462
     26 N4          8.1054   -3.9693   22.3391 N.ar    1  <0>        -0.2583
     27 N5          4.5564   -7.3214   20.2976 N.2     1  <0>        -0.2297
     28 N6          5.3224   -3.5301   22.1105 N.pl3   1  <0>        -0.3375
     29 N7          6.5906  -11.4542   22.0778 N.pl3   1  <0>        -0.2652
     30 O1          2.9690   -6.1193   18.5704 O.2     1  <0>        -0.2697
     31 H1          7.6778   -6.7635   24.0029 H       1  <0>         0.0278
     32 H2          5.9506   -6.3806   24.3136 H       1  <0>         0.0278
     33 H3          6.7243   -7.7752   25.1403 H       1  <0>         0.0278
     34 H4          9.2127   -2.7343   25.8526 H       1  <0>         0.0619
     35 H5         10.3989   -4.6148   24.7011 H       1  <0>         0.0633
     36 H6          7.3327   -1.6656   24.6607 H       1  <0>         0.0636
     37 H7          4.4395   -1.5611   20.5708 H       1  <0>         0.0649
     38 H8          3.0681   -1.7656   18.6431 H       1  <0>         0.0783
     39 H9          9.6279   -5.3900   22.4730 H       1  <0>         0.0829
     40 H10         7.3214  -14.4546   23.1587 H       1  <0>         0.0843
     41 H11         6.5781  -12.0709   24.1837 H       1  <0>         0.0803
     42 H12         7.1104   -9.7888   23.9426 H       1  <0>         0.0639
     43 H13         5.2151  -10.1835   20.2301 H       1  <0>         0.0658
     44 H14         6.8768  -11.7127   19.9776 H       1  <0>         0.1006
     45 H15         5.8311   -1.5225   22.8773 H       1  <0>         0.0526
     46 H16         6.5497   -1.8825   21.3006 H       1  <0>         0.0526
     47 H17         2.4501   -3.7803   17.7082 H       1  <0>         0.1546
     48 H18         5.4574   -5.4492   22.5147 H       1  <0>         0.1536
     49 H19         5.9001   -4.3444   22.1668 H       1  <0>         0.1465
@<TRIPOS>BOND
     1     1    14    1
     2     2     3   ar
     3     2     4   ar
     4     3     7   ar
     5     4    15   ar
     6     5     6    2
     7     5    16    1
     8     6    23    1
     9     7    26   ar
    10     8     9    2
    11     8    25    1
    12     9    29    1
    13    10    14   ar
    14    10    17   ar
    15    11    17   ar
    16    11    18   ar
    17    12    25    2
    18    12    29    1
    19    13    15    1
    20    13    28    1
    21    14    20   ar
    22    15    26   ar
    23    16    19    2
    24    16    28    1
    25    17    29    1
    26    18    20   ar
    27    18    27    1
    28    19    21    1
    29    19    22    1
    30    20    24    1
    31    21    23   am
    32    21    30    2
    33    22    24    1
    34    22    27    2
    35     1    31    1
    36     1    32    1
    37     1    33    1
    38     2    34    1
    39     3    35    1
    40     4    36    1
    41     5    37    1
    42     6    38    1
    43     7    39    1
    44     8    40    1
    45     9    41    1
    46    10    42    1
    47    11    43    1
    48    12    44    1
    49    13    45    1
    50    13    46    1
    51    23    47    1
    52    24    48    1
    53    28    49    1
@<TRIPOS>SUBSTRUCTURE
     1 <0>         1 TEMP              0 ****  ****    0 ROOT

