
##########                                Name:        BMI_301_2OJ9
##########                    Molecular_Weight:             397.439
##########                DOCK_Rotatable_Bonds:                   5
##########                       Formal_Charge:         0.000199959
##########                     HBond_Acceptors:                   8
##########                        HBond_Donors:                   3
##########                         Heavy_Atoms:                  30
##########                            HA_RMSDs:               0.747
##########                            HA_RMSDh:               0.747
##########                            HA_RMSDm:               0.738
##########                          Grid_Score:          -55.476845
##########                     Grid_vdw_energy:          -53.934597
##########                      Grid_es_energy:           -1.542248
##########           Internal_energy_repulsive:           20.287584

@<TRIPOS>MOLECULE
BMI_301_2OJ9
 49 53 1 0 0
SMALL
USER_CHARGES


@<TRIPOS>ATOM
      1 C1          6.5538   -6.9087   24.1381 C.3     1  <0>        -0.0378
      2 C2          9.0179   -4.1192   23.7076 C.ar    1  <0>        -0.0586
      3 C3          9.4471   -4.9771   22.6869 C.ar    1  <0>        -0.0436
      4 C4          7.9770   -3.2784   23.4107 C.ar    1  <0>        -0.0388
      5 C5          3.8152   -2.5533   19.9557 C.2     1  <0>        -0.0261
      6 C6          3.0831   -2.7735   18.8518 C.2     1  <0>        -0.0017
      7 C7          8.8041   -4.9680   21.4294 C.ar    1  <0>         0.0279
      8 C8          7.0415  -13.3602   22.9063 C.2     1  <0>         0.0434
      9 C9          6.5772  -12.1055   23.3731 C.2     1  <0>         0.0209
     10 C10         6.4708   -9.1417   23.1701 C.ar    1  <0>        -0.0352
     11 C11         5.3823   -9.4958   21.1668 C.ar    1  <0>        -0.0127
     12 C12         6.9083  -12.0051   21.2181 C.2     1  <0>         0.0921
     13 C13         6.1945   -2.4082   21.8848 C.3     1  <0>         0.0515
     14 C14         6.1479   -7.8761   23.0728 C.ar    1  <0>        -0.0254
     15 C15         7.3869   -3.2940   22.1655 C.ar    1  <0>         0.0582
     16 C16         4.2293   -3.6638   20.7118 C.2     1  <0>         0.0442
     17 C17         6.1066   -9.9503   22.2064 C.ar    1  <0>         0.0414
     18 C18         5.0489   -8.1357   21.1295 C.ar    1  <0>         0.0891
     19 C19         3.8754   -4.9301   20.1638 C.2     1  <0>         0.0977
     20 C20         5.4430   -7.3801   22.0743 C.ar    1  <0>         0.0612
     21 C21         3.1149   -5.0680   18.9110 C.2     1  <0>         0.2530
     22 C22         4.3575   -6.1207   20.8075 C.2     1  <0>         0.1377
     23 N1          2.7379   -3.9435   18.3281 N.am    1  <0>        -0.2878
     24 N2          5.0386   -6.1028   21.8201 N.pl3   1  <0>        -0.2969
     25 N3          7.2536  -13.2620   21.5513 N.2     1  <0>        -0.2462
     26 N4          7.7952   -4.1359   21.1827 N.ar    1  <0>        -0.2583
     27 N5          4.3539   -7.3155   20.2859 N.2     1  <0>        -0.2297
     28 N6          5.0103   -3.4088   21.8989 N.pl3   1  <0>        -0.3375
     29 N7          6.4999  -11.2944   22.2734 N.pl3   1  <0>        -0.2652
     30 O1          2.7781   -6.2484   18.4741 O.2     1  <0>        -0.2697
     31 H1          7.5334   -6.4758   23.8871 H       1  <0>         0.0278
     32 H2          5.8054   -6.1056   24.2084 H       1  <0>         0.0278
     33 H3          6.6211   -7.4329   25.1029 H       1  <0>         0.0278
     34 H4          9.4848   -4.1202   24.6815 H       1  <0>         0.0619
     35 H5         10.2741   -5.6491   22.8624 H       1  <0>         0.0633
     36 H6          7.6141   -2.5941   24.1634 H       1  <0>         0.0636
     37 H7          4.0789   -1.5496   20.2548 H       1  <0>         0.0649
     38 H8          2.7341   -1.8956   18.3285 H       1  <0>         0.0783
     39 H9          9.1360   -5.6460   20.6570 H       1  <0>         0.0829
     40 H10         7.2011  -14.2412   23.5102 H       1  <0>         0.0843
     41 H11         6.3335  -11.8422   24.3918 H       1  <0>         0.0803
     42 H12         7.0229   -9.5088   24.0226 H       1  <0>         0.0639
     43 H13         5.0658  -10.1641   20.3797 H       1  <0>         0.0658
     44 H14         6.9557  -11.6149   20.2121 H       1  <0>         0.1006
     45 H15         6.0775   -1.6277   22.6511 H       1  <0>         0.0526
     46 H16         6.2854   -1.8982   20.9145 H       1  <0>         0.0526
     47 H17         2.1916   -3.9739   17.4911 H       1  <0>         0.1546
     48 H18         5.2606   -5.2952   22.3663 H       1  <0>         0.1536
     49 H19         5.4042   -4.2906   22.1583 H       1  <0>         0.1465
@<TRIPOS>BOND
     1     1    14    1
     2     2     3   ar
     3     2     4   ar
     4     3     7   ar
     5     4    15   ar
     6     5     6    2
     7     5    16    1
     8     6    23    1
     9     7    26   ar
    10     8     9    2
    11     8    25    1
    12     9    29    1
    13    10    14   ar
    14    10    17   ar
    15    11    17   ar
    16    11    18   ar
    17    12    25    2
    18    12    29    1
    19    13    15    1
    20    13    28    1
    21    14    20   ar
    22    15    26   ar
    23    16    19    2
    24    16    28    1
    25    17    29    1
    26    18    20   ar
    27    18    27    1
    28    19    21    1
    29    19    22    1
    30    20    24    1
    31    21    23   am
    32    21    30    2
    33    22    24    1
    34    22    27    2
    35     1    31    1
    36     1    32    1
    37     1    33    1
    38     2    34    1
    39     3    35    1
    40     4    36    1
    41     5    37    1
    42     6    38    1
    43     7    39    1
    44     8    40    1
    45     9    41    1
    46    10    42    1
    47    11    43    1
    48    12    44    1
    49    13    45    1
    50    13    46    1
    51    23    47    1
    52    24    48    1
    53    28    49    1
@<TRIPOS>SUBSTRUCTURE
     1 <0>         1 TEMP              0 ****  ****    0 ROOT

