
##########                                Name:      208_A1001_2GTK
##########                    Molecular_Weight:             437.902
##########                DOCK_Rotatable_Bonds:                   8
##########                       Formal_Charge:             -0.9997
##########                     HBond_Acceptors:                   7
##########                        HBond_Donors:                   0
##########                         Heavy_Atoms:                  31
##########                            HA_RMSDs:               0.407
##########                            HA_RMSDh:               0.407
##########                            HA_RMSDm:               0.407
##########                          Grid_Score:          -13.398613
##########                     Grid_vdw_energy:          -56.969028
##########                      Grid_es_energy:           43.570415
##########           Internal_energy_repulsive:            8.729829

@<TRIPOS>MOLECULE
208_A1001_2GTK
 53 56 1 0 0
SMALL
USER_CHARGES


@<TRIPOS>ATOM
      1 C1          0.6839   28.3163   15.1270 C.3     1  <0>        -0.0415
      2 C2          7.8865   26.3128   15.8061 C.3     1  <0>        -0.0156
      3 C3          5.1918   19.6503   14.3995 C.ar    1  <0>        -0.0610
      4 C4          5.7092   19.4550   13.1163 C.ar    1  <0>        -0.0603
      5 C5          5.5366   20.7812   15.1232 C.ar    1  <0>        -0.0492
      6 C6          6.5686   20.3934   12.5611 C.ar    1  <0>        -0.0427
      7 C7          3.3828   27.2013   18.7591 C.ar    1  <0>        -0.0567
      8 C8          4.5859   26.5401   18.5675 C.ar    1  <0>        -0.0395
      9 C9          4.2197   23.4634   20.4700 C.2     1  <0>        -0.0388
     10 C10         5.4888   23.3098   20.0139 C.2     1  <0>        -0.0022
     11 C11         2.5269   25.4029   20.1600 C.ar    1  <0>        -0.0495
     12 C12        -0.0281   27.6207   16.2880 C.3     1  <0>         0.0457
     13 C13         1.0824   27.3928   19.7862 C.3     1  <0>         0.0040
     14 C14         7.1607   24.6642   18.5819 C.3     1  <0>         0.0612
     15 C15         7.4000   24.9107   16.0131 C.2     1  <0>         0.0820
     16 C16         2.3605   26.6404   19.5598 C.ar    1  <0>        -0.0439
     17 C17         3.7409   24.7197   19.9754 C.ar    1  <0>        -0.0022
     18 C18         6.4068   21.7413   14.5809 C.ar    1  <0>         0.0428
     19 C19         4.7362   25.3020   19.2039 C.ar    1  <0>         0.0411
     20 C20         6.9187   21.5354   13.2835 C.ar    1  <0>         0.0521
     21 C21         7.1060   24.2506   17.1450 C.2     1  <0>         0.0876
     22 C22         6.7527   22.9011   15.3776 C.2     1  <0>         0.1818
     23 C23         0.1136   27.2318   18.6114 C.3     1  <0>         0.1016
     24 C24        -1.2816   27.5405   19.0678 C.2     1  <0>         0.0707
     25 N1          6.6873   22.9624   16.7499 N.2     1  <0>        -0.2237
     26 N2          5.8603   24.4357   19.2260 N.pl3   1  <0>        -0.3000
     27 O1         -1.6194   28.7520   19.2259 O.co2   1  <0>        -0.5471
     28 O2         -2.0519   26.5694   19.3297 O.co2   1  <0>        -0.5471
     29 O3          7.1889   24.0926   14.9211 O.3     1  <0>        -0.2931
     30 O4          0.4923   28.0803   17.5306 O.3     1  <0>        -0.3707
     31 Cl1         8.0076   22.6868   12.5421 Cl      1  <0>        -0.0828
     32 H1          0.2730   27.9527   14.1736 H       1  <0>         0.0252
     33 H2          0.5308   29.4030   15.2014 H       1  <0>         0.0252
     34 H3          1.7602   28.0935   15.1709 H       1  <0>         0.0252
     35 H4          8.0149   26.5018   14.7300 H       1  <0>         0.0298
     36 H5          7.1514   27.0203   16.2172 H       1  <0>         0.0298
     37 H6          8.8504   26.4458   16.3191 H       1  <0>         0.0298
     38 H7          4.5223   18.9192   14.8280 H       1  <0>         0.0618
     39 H8          5.4399   18.5723   12.5553 H       1  <0>         0.0618
     40 H9          5.1320   20.9256   16.1141 H       1  <0>         0.0625
     41 H10         6.9668   20.2396   11.5690 H       1  <0>         0.0632
     42 H11         3.2234   28.1606   18.2892 H       1  <0>         0.0621
     43 H12         5.3706   26.9603   17.9560 H       1  <0>         0.0636
     44 H13         3.6730   22.7683   21.0900 H       1  <0>         0.0637
     45 H14         6.1228   22.4597   20.2184 H       1  <0>         0.0784
     46 H15         1.7384   24.9714   20.7587 H       1  <0>         0.0627
     47 H16        -1.1037   27.8460   16.2404 H       1  <0>         0.0557
     48 H17         0.1275   26.5345   16.2098 H       1  <0>         0.0557
     49 H18         0.6011   27.0053   20.6963 H       1  <0>         0.0342
     50 H19         1.3177   28.4606   19.9060 H       1  <0>         0.0342
     51 H20         7.9302   24.0729   19.0999 H       1  <0>         0.0533
     52 H21         7.4114   25.7335   18.6416 H       1  <0>         0.0533
     53 H22         0.1499   26.1927   18.2523 H       1  <0>         0.0661
@<TRIPOS>BOND
     1     1    12    1
     2     2    15    1
     3     3     4   ar
     4     3     5   ar
     5     4     6   ar
     6     5    18   ar
     7     6    20   ar
     8     7     8   ar
     9     7    16   ar
    10     8    19   ar
    11     9    10    2
    12     9    17    1
    13    10    26    1
    14    11    16   ar
    15    11    17   ar
    16    12    30    1
    17    13    16    1
    18    13    23    1
    19    14    21    1
    20    14    26    1
    21    15    21    2
    22    15    29    1
    23    17    19   ar
    24    18    20   ar
    25    18    22    1
    26    19    26    1
    27    20    31    1
    28    21    25    1
    29    22    25    2
    30    22    29    1
    31    23    24    1
    32    23    30    1
    33    24    27    1
    34    24    28    2
    35     1    32    1
    36     1    33    1
    37     1    34    1
    38     2    35    1
    39     2    36    1
    40     2    37    1
    41     3    38    1
    42     4    39    1
    43     5    40    1
    44     6    41    1
    45     7    42    1
    46     8    43    1
    47     9    44    1
    48    10    45    1
    49    11    46    1
    50    12    47    1
    51    12    48    1
    52    13    49    1
    53    13    50    1
    54    14    51    1
    55    14    52    1
    56    23    53    1
@<TRIPOS>SUBSTRUCTURE
     1 <0>         1 TEMP              0 ****  ****    0 ROOT

