
##########                                Name:      208_A1001_2GTK
##########                    Molecular_Weight:             437.902
##########                DOCK_Rotatable_Bonds:                   8
##########                       Formal_Charge:             -0.9997
##########                     HBond_Acceptors:                   7
##########                        HBond_Donors:                   0
##########                         Heavy_Atoms:                  31
##########                            HA_RMSDs:               0.636
##########                            HA_RMSDh:               0.636
##########                            HA_RMSDm:               0.598
##########                          Grid_Score:          -17.416321
##########                     Grid_vdw_energy:          -57.138771
##########                      Grid_es_energy:           39.722450
##########           Internal_energy_repulsive:           10.689458

@<TRIPOS>MOLECULE
208_A1001_2GTK
 53 56 1 0 0
SMALL
USER_CHARGES


@<TRIPOS>ATOM
      1 C1          0.5998   28.4315   14.8973 C.3     1  <0>        -0.0415
      2 C2          8.0456   25.7291   15.8972 C.3     1  <0>        -0.0156
      3 C3          5.0470   19.0697   15.1230 C.ar    1  <0>        -0.0610
      4 C4          5.2247   18.9171   13.7455 C.ar    1  <0>        -0.0603
      5 C5          5.4652   20.2313   15.7533 C.ar    1  <0>        -0.0492
      6 C6          5.8188   19.9289   13.0032 C.ar    1  <0>        -0.0427
      7 C7          3.2899   27.2761   18.6804 C.ar    1  <0>        -0.0567
      8 C8          4.4553   26.5350   18.5628 C.ar    1  <0>        -0.0395
      9 C9          3.8241   23.5663   20.5649 C.2     1  <0>        -0.0388
     10 C10         5.0974   23.3166   20.1664 C.2     1  <0>        -0.0022
     11 C11         2.2699   25.5921   20.1132 C.ar    1  <0>        -0.0495
     12 C12         0.1201   27.5814   16.0746 C.3     1  <0>         0.0457
     13 C13         0.9689   27.6503   19.6059 C.3     1  <0>         0.0040
     14 C14         6.9043   24.5063   18.7525 C.3     1  <0>         0.0612
     15 C15         7.3644   24.4300   16.2031 C.2     1  <0>         0.0820
     16 C16         2.2047   26.8121   19.4600 C.ar    1  <0>        -0.0439
     17 C17         3.4445   24.8286   20.0039 C.ar    1  <0>        -0.0022
     18 C18         6.0710   21.2656   15.0212 C.ar    1  <0>         0.0428
     19 C19         4.5030   25.3168   19.2514 C.ar    1  <0>         0.0411
     20 C20         6.2407   21.1020   13.6311 C.ar    1  <0>         0.0521
     21 C21         6.9025   23.9431   17.3663 C.2     1  <0>         0.0876
     22 C22         6.5066   22.4565   15.7222 C.2     1  <0>         0.1818
     23 C23         0.0093   27.4558   18.4286 C.3     1  <0>         0.1016
     24 C24        -1.3787   27.8424   18.8457 C.2     1  <0>         0.0707
     25 N1          6.3481   22.6799   17.0699 N.2     1  <0>        -0.2237
     26 N2          5.5687   24.3846   19.3518 N.pl3   1  <0>        -0.3000
     27 O1         -1.8911   28.8965   18.3629 O.co2   1  <0>        -0.5471
     28 O2         -1.9636   27.1239   19.7098 O.co2   1  <0>        -0.5471
     29 O3          7.1290   23.5261   15.1863 O.3     1  <0>        -0.2931
     30 O4          0.4332   28.2242   17.3054 O.3     1  <0>        -0.3707
     31 Cl1         6.9869   22.3463   12.6533 Cl      1  <0>        -0.0828
     32 H1          0.3520   27.9243   13.9532 H       1  <0>         0.0252
     33 H2          0.1034   29.4127   14.9274 H       1  <0>         0.0252
     34 H3          1.6891   28.5692   14.9646 H       1  <0>         0.0252
     35 H4          8.2775   25.7782   14.8230 H       1  <0>         0.0298
     36 H5          7.3818   26.5635   16.1673 H       1  <0>         0.0298
     37 H6          8.9778   25.7995   16.4769 H       1  <0>         0.0298
     38 H7          4.5832   18.2814   15.6973 H       1  <0>         0.0618
     39 H8          4.8992   18.0104   13.2573 H       1  <0>         0.0618
     40 H9          5.3237   20.3421   16.8183 H       1  <0>         0.0625
     41 H10         5.9548   19.8080   11.9386 H       1  <0>         0.0632
     42 H11         3.2092   28.2236   18.1683 H       1  <0>         0.0621
     43 H12         5.2876   26.8810   17.9678 H       1  <0>         0.0636
     44 H13         3.2116   22.9319   21.1884 H       1  <0>         0.0637
     45 H14         5.6683   22.4380   20.4286 H       1  <0>         0.0784
     46 H15         1.4337   25.2345   20.6956 H       1  <0>         0.0627
     47 H16        -0.9693   27.4463   16.0036 H       1  <0>         0.0557
     48 H17         0.6187   26.6015   16.0407 H       1  <0>         0.0557
     49 H18         0.4532   27.3604   20.5333 H       1  <0>         0.0342
     50 H19         1.2636   28.7091   19.6500 H       1  <0>         0.0342
     51 H20         7.6290   23.9526   19.3674 H       1  <0>         0.0533
     52 H21         7.1873   25.5685   18.7114 H       1  <0>         0.0533
     53 H22         0.0108   26.3966   18.1318 H       1  <0>         0.0661
@<TRIPOS>BOND
     1     1    12    1
     2     2    15    1
     3     3     4   ar
     4     3     5   ar
     5     4     6   ar
     6     5    18   ar
     7     6    20   ar
     8     7     8   ar
     9     7    16   ar
    10     8    19   ar
    11     9    10    2
    12     9    17    1
    13    10    26    1
    14    11    16   ar
    15    11    17   ar
    16    12    30    1
    17    13    16    1
    18    13    23    1
    19    14    21    1
    20    14    26    1
    21    15    21    2
    22    15    29    1
    23    17    19   ar
    24    18    20   ar
    25    18    22    1
    26    19    26    1
    27    20    31    1
    28    21    25    1
    29    22    25    2
    30    22    29    1
    31    23    24    1
    32    23    30    1
    33    24    27    1
    34    24    28    2
    35     1    32    1
    36     1    33    1
    37     1    34    1
    38     2    35    1
    39     2    36    1
    40     2    37    1
    41     3    38    1
    42     4    39    1
    43     5    40    1
    44     6    41    1
    45     7    42    1
    46     8    43    1
    47     9    44    1
    48    10    45    1
    49    11    46    1
    50    12    47    1
    51    12    48    1
    52    13    49    1
    53    13    50    1
    54    14    51    1
    55    14    52    1
    56    23    53    1
@<TRIPOS>SUBSTRUCTURE
     1 <0>         1 TEMP              0 ****  ****    0 ROOT

