
##########                                Name:      208_A1001_2GTK
##########                    Molecular_Weight:             437.902
##########                DOCK_Rotatable_Bonds:                   8
##########                       Formal_Charge:             -0.9997
##########                     HBond_Acceptors:                   7
##########                        HBond_Donors:                   0
##########                         Heavy_Atoms:                  31
##########                            HA_RMSDs:               1.092
##########                            HA_RMSDh:               1.092
##########                            HA_RMSDm:               0.896
##########                          Grid_Score:          -23.343620
##########                     Grid_vdw_energy:          -62.085094
##########                      Grid_es_energy:           38.741474
##########           Internal_energy_repulsive:           12.422016

@<TRIPOS>MOLECULE
208_A1001_2GTK
 53 56 1 0 0
SMALL
USER_CHARGES


@<TRIPOS>ATOM
      1 C1          0.1644   28.2151   15.1967 C.3     1  <0>        -0.0415
      2 C2          7.7220   25.3820   15.4826 C.3     1  <0>        -0.0156
      3 C3          5.7740   18.3493   15.9245 C.ar    1  <0>        -0.0610
      4 C4          5.3210   18.1427   14.6189 C.ar    1  <0>        -0.0603
      5 C5          6.1324   19.6213   16.3428 C.ar    1  <0>        -0.0492
      6 C6          5.2265   19.2107   13.7369 C.ar    1  <0>        -0.0427
      7 C7          3.1287   27.0077   18.7289 C.ar    1  <0>        -0.0567
      8 C8          4.3309   26.3470   18.5307 C.ar    1  <0>        -0.0395
      9 C9          4.1923   23.5416   20.8393 C.2     1  <0>        -0.0388
     10 C10         5.4268   23.3503   20.3085 C.2     1  <0>        -0.0022
     11 C11         2.4298   25.3954   20.4145 C.ar    1  <0>        -0.0495
     12 C12        -0.2900   27.3823   16.3962 C.3     1  <0>         0.0457
     13 C13         0.9086   27.2947   19.9005 C.3     1  <0>         0.0040
     14 C14         6.9484   24.5319   18.5856 C.3     1  <0>         0.0612
     15 C15         7.1797   24.1014   16.0404 C.2     1  <0>         0.0820
     16 C16         2.1854   26.5403   19.6736 C.ar    1  <0>        -0.0439
     17 C17         3.6440   24.7139   20.2251 C.ar    1  <0>        -0.0022
     18 C18         6.0469   20.7148   15.4653 C.ar    1  <0>         0.0428
     19 C19         4.5620   25.2059   19.3085 C.ar    1  <0>         0.0411
     20 C20         5.5840   20.4947   14.1519 C.ar    1  <0>         0.0521
     21 C21         6.8667   23.7664   17.3027 C.2     1  <0>         0.0876
     22 C22         6.4458   22.0247   15.9391 C.2     1  <0>         0.1818
     23 C23        -0.0657   27.1254   18.7314 C.3     1  <0>         0.1016
     24 C24        -1.3975   27.7078   19.1020 C.2     1  <0>         0.0707
     25 N1          6.3926   22.4385   17.2496 N.2     1  <0>        -0.2237
     26 N2          5.7072   24.3687   19.3543 N.pl3   1  <0>        -0.3000
     27 O1         -1.7800   28.7724   18.5301 O.co2   1  <0>        -0.5471
     28 O2         -2.0644   27.1373   20.0157 O.co2   1  <0>        -0.5471
     29 O3          6.9275   23.0402   15.1940 O.3     1  <0>        -0.2931
     30 O4          0.4495   27.7466   17.5566 O.3     1  <0>        -0.3707
     31 Cl1         5.4508   21.8071   13.0026 Cl      1  <0>        -0.0828
     32 H1         -0.4142   27.9242   14.3075 H       1  <0>         0.0252
     33 H2         -0.0000   29.2820   15.4079 H       1  <0>         0.0252
     34 H3          1.2342   28.0382   15.0119 H       1  <0>         0.0252
     35 H4          7.8505   25.2833   14.3946 H       1  <0>         0.0298
     36 H5          7.0195   26.2012   15.6957 H       1  <0>         0.0298
     37 H6          8.6941   25.6020   15.9480 H       1  <0>         0.0298
     38 H7          5.8450   17.5167   16.6086 H       1  <0>         0.0618
     39 H8          5.0439   17.1503   14.2954 H       1  <0>         0.0618
     40 H9          6.4809   19.7732   17.3537 H       1  <0>         0.0625
     41 H10         4.8760   19.0478   12.7284 H       1  <0>         0.0632
     42 H11         2.9085   27.8941   18.1525 H       1  <0>         0.0621
     43 H12         5.0555   26.6960   17.8098 H       1  <0>         0.0636
     44 H13         3.7130   22.9252   21.5854 H       1  <0>         0.0637
     45 H14         6.0968   22.5450   20.5710 H       1  <0>         0.0784
     46 H15         1.7008   25.0334   21.1243 H       1  <0>         0.0627
     47 H16        -1.3600   27.5620   16.5775 H       1  <0>         0.0557
     48 H17        -0.1239   26.3164   16.1808 H       1  <0>         0.0557
     49 H18         0.4314   26.9142   20.8156 H       1  <0>         0.0342
     50 H19         1.1448   28.3633   20.0112 H       1  <0>         0.0342
     51 H20         7.7942   24.1547   19.1792 H       1  <0>         0.0533
     52 H21         7.0983   25.5985   18.3620 H       1  <0>         0.0533
     53 H22        -0.1918   26.0537   18.5179 H       1  <0>         0.0661
@<TRIPOS>BOND
     1     1    12    1
     2     2    15    1
     3     3     4   ar
     4     3     5   ar
     5     4     6   ar
     6     5    18   ar
     7     6    20   ar
     8     7     8   ar
     9     7    16   ar
    10     8    19   ar
    11     9    10    2
    12     9    17    1
    13    10    26    1
    14    11    16   ar
    15    11    17   ar
    16    12    30    1
    17    13    16    1
    18    13    23    1
    19    14    21    1
    20    14    26    1
    21    15    21    2
    22    15    29    1
    23    17    19   ar
    24    18    20   ar
    25    18    22    1
    26    19    26    1
    27    20    31    1
    28    21    25    1
    29    22    25    2
    30    22    29    1
    31    23    24    1
    32    23    30    1
    33    24    27    1
    34    24    28    2
    35     1    32    1
    36     1    33    1
    37     1    34    1
    38     2    35    1
    39     2    36    1
    40     2    37    1
    41     3    38    1
    42     4    39    1
    43     5    40    1
    44     6    41    1
    45     7    42    1
    46     8    43    1
    47     9    44    1
    48    10    45    1
    49    11    46    1
    50    12    47    1
    51    12    48    1
    52    13    49    1
    53    13    50    1
    54    14    51    1
    55    14    52    1
    56    23    53    1
@<TRIPOS>SUBSTRUCTURE
     1 <0>         1 TEMP              0 ****  ****    0 ROOT

