
##########                                Name:      208_A1001_2GTK
##########                    Molecular_Weight:             437.902
##########                DOCK_Rotatable_Bonds:                   8
##########                       Formal_Charge:             -0.9997
##########                     HBond_Acceptors:                   7
##########                        HBond_Donors:                   0
##########                         Heavy_Atoms:                  31
##########                            HA_RMSDs:               0.435
##########                            HA_RMSDh:               0.435
##########                            HA_RMSDm:               0.435
##########                          Grid_Score:          -20.737026
##########                     Grid_vdw_energy:          -61.730927
##########                      Grid_es_energy:           40.993900
##########           Internal_energy_repulsive:           10.483424

@<TRIPOS>MOLECULE
208_A1001_2GTK
 53 56 1 0 0
SMALL
USER_CHARGES


@<TRIPOS>ATOM
      1 C1          0.5887   28.4347   15.2469 C.3     1  <0>        -0.0415
      2 C2          8.2622   25.8352   15.9576 C.3     1  <0>        -0.0156
      3 C3          4.6449   19.5566   14.7626 C.ar    1  <0>        -0.0610
      4 C4          4.9680   19.3792   13.4149 C.ar    1  <0>        -0.0603
      5 C5          5.1345   20.6523   15.4563 C.ar    1  <0>        -0.0492
      6 C6          5.7786   20.3004   12.7654 C.ar    1  <0>        -0.0427
      7 C7          3.1477   27.2015   18.9271 C.ar    1  <0>        -0.0567
      8 C8          4.3438   26.5297   18.7289 C.ar    1  <0>        -0.0395
      9 C9          3.8962   23.3826   20.4939 C.2     1  <0>        -0.0388
     10 C10         5.1709   23.2278   20.0538 C.2     1  <0>        -0.0022
     11 C11         2.2392   25.3603   20.2362 C.ar    1  <0>        -0.0495
     12 C12         0.0620   27.5425   16.3719 C.3     1  <0>         0.0457
     13 C13         0.8323   27.3869   19.9212 C.3     1  <0>         0.0040
     14 C14         6.8889   24.6137   18.7093 C.3     1  <0>         0.0612
     15 C15         7.4595   24.5899   16.1813 C.2     1  <0>         0.0820
     16 C16         2.1026   26.6242   19.6856 C.ar    1  <0>        -0.0439
     17 C17         3.4457   24.6660   20.0442 C.ar    1  <0>        -0.0022
     18 C18         5.9584   21.5944   14.8187 C.ar    1  <0>         0.0428
     19 C19         4.4636   25.2639   19.3152 C.ar    1  <0>         0.0411
     20 C20         6.2736   21.4071   13.4573 C.ar    1  <0>         0.0521
     21 C21         6.9040   24.1032   17.3030 C.2     1  <0>         0.0876
     22 C22         6.4605   22.7169   15.5850 C.2     1  <0>         0.1818
     23 C23        -0.1071   27.3109   18.7143 C.3     1  <0>         0.1016
     24 C24        -1.4771   27.7702   19.1173 C.2     1  <0>         0.0707
     25 N1          6.2587   22.9044   16.9324 N.2     1  <0>        -0.2237
     26 N2          5.5737   24.3795   19.3205 N.pl3   1  <0>        -0.3000
     27 O1         -1.8042   28.9766   18.9068 O.co2   1  <0>        -0.5471
     28 O2         -2.2352   26.9418   19.7039 O.co2   1  <0>        -0.5471
     29 O3          7.1959   23.7471   15.1200 O.3     1  <0>        -0.2931
     30 O4          0.3954   28.0995   17.6386 O.3     1  <0>        -0.3707
     31 Cl1         7.2938   22.5378   12.5960 Cl      1  <0>        -0.0828
     32 H1          0.3247   27.9937   14.2744 H       1  <0>         0.0252
     33 H2          0.1377   29.4345   15.3304 H       1  <0>         0.0252
     34 H3          1.6826   28.5178   15.3269 H       1  <0>         0.0252
     35 H4          8.5474   25.9028   14.8973 H       1  <0>         0.0298
     36 H5          7.6598   26.7138   16.2317 H       1  <0>         0.0298
     37 H6          9.1689   25.8036   16.5796 H       1  <0>         0.0298
     38 H7          4.0129   18.8390   15.2646 H       1  <0>         0.0618
     39 H8          4.5863   18.5238   12.8773 H       1  <0>         0.0618
     40 H9          4.8798   20.7830   16.4977 H       1  <0>         0.0625
     41 H10         6.0265   20.1605   11.7236 H       1  <0>         0.0632
     42 H11         3.0114   28.1820   18.4952 H       1  <0>         0.0621
     43 H12         5.1458   26.9624   18.1493 H       1  <0>         0.0636
     44 H13         3.3279   22.6712   21.0745 H       1  <0>         0.0637
     45 H14         5.7880   22.3599   20.2334 H       1  <0>         0.0784
     46 H15         1.4335   24.9169   20.8023 H       1  <0>         0.0627
     47 H16        -1.0319   27.4621   16.2882 H       1  <0>         0.0557
     48 H17         0.5154   26.5441   16.2846 H       1  <0>         0.0557
     49 H18         0.3198   26.9580   20.7950 H       1  <0>         0.0342
     50 H19         1.0830   28.4416   20.1075 H       1  <0>         0.0342
     51 H20         7.6585   24.0882   19.2937 H       1  <0>         0.0533
     52 H21         7.0989   25.6935   18.7049 H       1  <0>         0.0533
     53 H22        -0.1676   26.2686   18.3680 H       1  <0>         0.0661
@<TRIPOS>BOND
     1     1    12    1
     2     2    15    1
     3     3     4   ar
     4     3     5   ar
     5     4     6   ar
     6     5    18   ar
     7     6    20   ar
     8     7     8   ar
     9     7    16   ar
    10     8    19   ar
    11     9    10    2
    12     9    17    1
    13    10    26    1
    14    11    16   ar
    15    11    17   ar
    16    12    30    1
    17    13    16    1
    18    13    23    1
    19    14    21    1
    20    14    26    1
    21    15    21    2
    22    15    29    1
    23    17    19   ar
    24    18    20   ar
    25    18    22    1
    26    19    26    1
    27    20    31    1
    28    21    25    1
    29    22    25    2
    30    22    29    1
    31    23    24    1
    32    23    30    1
    33    24    27    1
    34    24    28    2
    35     1    32    1
    36     1    33    1
    37     1    34    1
    38     2    35    1
    39     2    36    1
    40     2    37    1
    41     3    38    1
    42     4    39    1
    43     5    40    1
    44     6    41    1
    45     7    42    1
    46     8    43    1
    47     9    44    1
    48    10    45    1
    49    11    46    1
    50    12    47    1
    51    12    48    1
    52    13    49    1
    53    13    50    1
    54    14    51    1
    55    14    52    1
    56    23    53    1
@<TRIPOS>SUBSTRUCTURE
     1 <0>         1 TEMP              0 ****  ****    0 ROOT

