
##########                                Name:      208_A1001_2GTK
##########                    Molecular_Weight:             437.902
##########                DOCK_Rotatable_Bonds:                   8
##########                       Formal_Charge:             -0.9997
##########                     HBond_Acceptors:                   7
##########                        HBond_Donors:                   0
##########                         Heavy_Atoms:                  31
##########                            HA_RMSDs:               0.530
##########                            HA_RMSDh:               0.530
##########                            HA_RMSDm:               0.511
##########                          Grid_Score:          -20.585308
##########                     Grid_vdw_energy:          -61.838821
##########                      Grid_es_energy:           41.253513
##########           Internal_energy_repulsive:           10.720672

@<TRIPOS>MOLECULE
208_A1001_2GTK
 53 56 1 0 0
SMALL
USER_CHARGES


@<TRIPOS>ATOM
      1 C1          0.7454   28.5993   15.2090 C.3     1  <0>        -0.0415
      2 C2          7.7837   25.8996   15.9102 C.3     1  <0>        -0.0156
      3 C3          5.1984   19.0824   15.0310 C.ar    1  <0>        -0.0610
      4 C4          5.4178   18.9478   13.6577 C.ar    1  <0>        -0.0603
      5 C5          5.5595   20.2522   15.6812 C.ar    1  <0>        -0.0492
      6 C6          5.9964   19.9855   12.9393 C.ar    1  <0>        -0.0427
      7 C7          3.2158   27.1021   18.8450 C.ar    1  <0>        -0.0567
      8 C8          4.4050   26.4088   18.6832 C.ar    1  <0>        -0.0395
      9 C9          3.9636   23.4098   20.6908 C.2     1  <0>        -0.0388
     10 C10         5.2311   23.2129   20.2470 C.2     1  <0>        -0.0022
     11 C11         2.3147   25.3732   20.3039 C.ar    1  <0>        -0.0495
     12 C12         0.2218   27.6495   16.2872 C.3     1  <0>         0.0457
     13 C13         0.9154   27.3793   19.8527 C.3     1  <0>         0.0040
     14 C14         6.9384   24.4795   18.7771 C.3     1  <0>         0.0612
     15 C15         7.2381   24.5352   16.2034 C.2     1  <0>         0.0820
     16 C16         2.1779   26.5920   19.6596 C.ar    1  <0>        -0.0439
     17 C17         3.5144   24.6579   20.1498 C.ar    1  <0>        -0.0022
     18 C18         6.1487   21.3128   14.9735 C.ar    1  <0>         0.0428
     19 C19         4.5255   25.1910   19.3635 C.ar    1  <0>         0.0411
     20 C20         6.3608   21.1670   13.5873 C.ar    1  <0>         0.0521
     21 C21         6.8958   23.9681   17.3717 C.2     1  <0>         0.0876
     22 C22         6.5244   22.5119   15.6950 C.2     1  <0>         0.1818
     23 C23         0.0156   27.3210   18.6151 C.3     1  <0>         0.1016
     24 C24        -1.3766   27.7358   18.9890 C.2     1  <0>         0.0707
     25 N1          6.4343   22.6722   17.0579 N.2     1  <0>        -0.2237
     26 N2          5.6305   24.3020   19.4220 N.pl3   1  <0>        -0.3000
     27 O1         -1.7450   28.9251   18.7513 O.co2   1  <0>        -0.5471
     28 O2         -2.1124   26.8903   19.5796 O.co2   1  <0>        -0.5471
     29 O3          7.0164   23.6508   15.1666 O.3     1  <0>        -0.2931
     30 O4          0.5321   28.1551   17.5811 O.3     1  <0>        -0.3707
     31 Cl1         7.0896   22.4443   12.6394 Cl      1  <0>        -0.0828
     32 H1          0.4993   28.1977   14.2150 H       1  <0>         0.0252
     33 H2          0.2767   29.5869   15.3315 H       1  <0>         0.0252
     34 H3          1.8368   28.6967   15.3051 H       1  <0>         0.0252
     35 H4          7.9408   26.0073   14.8268 H       1  <0>         0.0298
     36 H5          7.0692   26.6618   16.2544 H       1  <0>         0.0298
     37 H6          8.7418   26.0316   16.4343 H       1  <0>         0.0298
     38 H7          4.7468   18.2739   15.5867 H       1  <0>         0.0618
     39 H8          5.1368   18.0347   13.1540 H       1  <0>         0.0618
     40 H9          5.3860   20.3491   16.7428 H       1  <0>         0.0625
     41 H10         6.1647   19.8784   11.8779 H       1  <0>         0.0632
     42 H11         3.0793   28.0475   18.3409 H       1  <0>         0.0621
     43 H12         5.2015   26.7902   18.0614 H       1  <0>         0.0636
     44 H13         3.3991   22.7490   21.3320 H       1  <0>         0.0637
     45 H14         5.8455   22.3571   20.4846 H       1  <0>         0.0784
     46 H15         1.5143   24.9801   20.9132 H       1  <0>         0.0627
     47 H16        -0.8696   27.5550   16.1876 H       1  <0>         0.0557
     48 H17         0.6928   26.6635   16.1611 H       1  <0>         0.0557
     49 H18         0.3658   26.9608   20.7088 H       1  <0>         0.0342
     50 H19         1.1802   28.4290   20.0475 H       1  <0>         0.0342
     51 H20         7.6996   23.9219   19.3425 H       1  <0>         0.0533
     52 H21         7.1942   25.5493   18.7656 H       1  <0>         0.0533
     53 H22        -0.0095   26.2892   18.2343 H       1  <0>         0.0661
@<TRIPOS>BOND
     1     1    12    1
     2     2    15    1
     3     3     4   ar
     4     3     5   ar
     5     4     6   ar
     6     5    18   ar
     7     6    20   ar
     8     7     8   ar
     9     7    16   ar
    10     8    19   ar
    11     9    10    2
    12     9    17    1
    13    10    26    1
    14    11    16   ar
    15    11    17   ar
    16    12    30    1
    17    13    16    1
    18    13    23    1
    19    14    21    1
    20    14    26    1
    21    15    21    2
    22    15    29    1
    23    17    19   ar
    24    18    20   ar
    25    18    22    1
    26    19    26    1
    27    20    31    1
    28    21    25    1
    29    22    25    2
    30    22    29    1
    31    23    24    1
    32    23    30    1
    33    24    27    1
    34    24    28    2
    35     1    32    1
    36     1    33    1
    37     1    34    1
    38     2    35    1
    39     2    36    1
    40     2    37    1
    41     3    38    1
    42     4    39    1
    43     5    40    1
    44     6    41    1
    45     7    42    1
    46     8    43    1
    47     9    44    1
    48    10    45    1
    49    11    46    1
    50    12    47    1
    51    12    48    1
    52    13    49    1
    53    13    50    1
    54    14    51    1
    55    14    52    1
    56    23    53    1
@<TRIPOS>SUBSTRUCTURE
     1 <0>         1 TEMP              0 ****  ****    0 ROOT

