
##########                                Name:      208_A1001_2GTK
##########                    Molecular_Weight:             437.902
##########                DOCK_Rotatable_Bonds:                   8
##########                       Formal_Charge:             -0.9997
##########                     HBond_Acceptors:                   7
##########                        HBond_Donors:                   0
##########                         Heavy_Atoms:                  31
##########                            HA_RMSDs:               0.492
##########                            HA_RMSDh:               0.492
##########                            HA_RMSDm:               0.492
##########                          Grid_Score:          -20.201862
##########                     Grid_vdw_energy:          -60.760746
##########                      Grid_es_energy:           40.558884
##########           Internal_energy_repulsive:           16.762796

@<TRIPOS>MOLECULE
208_A1001_2GTK
 53 56 1 0 0
SMALL
USER_CHARGES


@<TRIPOS>ATOM
      1 C1         -0.3463   28.6277   15.5493 C.3     1  <0>        -0.0415
      2 C2          7.7196   25.9440   16.0376 C.3     1  <0>        -0.0156
      3 C3          5.4139   19.1599   14.4276 C.ar    1  <0>        -0.0610
      4 C4          5.3458   19.2843   13.0375 C.ar    1  <0>        -0.0603
      5 C5          5.7982   20.2419   15.2042 C.ar    1  <0>        -0.0492
      6 C6          5.6609   20.4920   12.4296 C.ar    1  <0>        -0.0427
      7 C7          3.6748   27.0015   18.8258 C.ar    1  <0>        -0.0567
      8 C8          4.8044   26.2170   18.6536 C.ar    1  <0>        -0.0395
      9 C9          4.1944   23.3112   20.7521 C.2     1  <0>        -0.0388
     10 C10         5.4315   23.0085   20.2827 C.2     1  <0>        -0.0022
     11 C11         2.6866   25.3825   20.3527 C.ar    1  <0>        -0.0495
     12 C12        -0.2182   27.4836   16.5560 C.3     1  <0>         0.0457
     13 C13         1.4290   27.4760   19.8818 C.3     1  <0>         0.0040
     14 C14         7.1887   24.1059   18.7375 C.3     1  <0>         0.0612
     15 C15         7.2404   24.5316   16.1815 C.2     1  <0>         0.0820
     16 C16         2.6238   26.5915   19.6791 C.ar    1  <0>        -0.0439
     17 C17         3.8251   24.5754   20.1886 C.ar    1  <0>        -0.0022
     18 C18         6.1238   21.4717   14.6088 C.ar    1  <0>         0.0428
     19 C19         4.8520   25.0111   19.3635 C.ar    1  <0>         0.0411
     20 C20         6.0469   21.5863   13.2057 C.ar    1  <0>         0.0521
     21 C21         7.0259   23.7941   17.2832 C.2     1  <0>         0.0876
     22 C22         6.5349   22.5723   15.4568 C.2     1  <0>         0.1818
     23 C23         0.3454   27.2150   18.8319 C.3     1  <0>         0.1016
     24 C24        -0.9746   27.7137   19.3410 C.2     1  <0>         0.0707
     25 N1          6.5709   22.5374   16.8311 N.2     1  <0>        -0.2237
     26 N2          5.8888   24.0434   19.4189 N.pl3   1  <0>        -0.3000
     27 O1         -1.5059   28.7190   18.7806 O.co2   1  <0>        -0.5471
     28 O2         -1.4801   27.1390   20.3505 O.co2   1  <0>        -0.5471
     29 O3          6.9443   23.7923   15.0537 O.3     1  <0>        -0.2931
     30 O4          0.6825   27.8434   17.5978 O.3     1  <0>        -0.3707
     31 Cl1         6.4373   23.0856   12.3928 Cl      1  <0>        -0.0828
     32 H1         -1.0443   28.3373   14.7504 H       1  <0>         0.0252
     33 H2         -0.7267   29.5245   16.0602 H       1  <0>         0.0252
     34 H3          0.6401   28.8444   15.1135 H       1  <0>         0.0252
     35 H4          7.7698   26.2078   14.9708 H       1  <0>         0.0298
     36 H5          7.0213   26.6220   16.5502 H       1  <0>         0.0298
     37 H6          8.7194   26.0394   16.4862 H       1  <0>         0.0298
     38 H7          5.1667   18.2195   14.8976 H       1  <0>         0.0618
     39 H8          5.0475   18.4392   12.4349 H       1  <0>         0.0618
     40 H9          5.8476   20.1383   16.2781 H       1  <0>         0.0625
     41 H10         5.6073   20.5850   11.3550 H       1  <0>         0.0632
     42 H11         3.5957   27.9414   18.2997 H       1  <0>         0.0621
     43 H12         5.6102   26.5217   18.0023 H       1  <0>         0.0636
     44 H13         3.5995   22.7110   21.4246 H       1  <0>         0.0637
     45 H14         5.9866   22.1152   20.5283 H       1  <0>         0.0784
     46 H15         1.8756   25.0661   20.9919 H       1  <0>         0.0627
     47 H16        -1.2064   27.2701   16.9894 H       1  <0>         0.0557
     48 H17         0.1624   26.5891   16.0412 H       1  <0>         0.0557
     49 H18         1.0090   27.2789   20.8792 H       1  <0>         0.0342
     50 H19         1.7495   28.5255   19.8050 H       1  <0>         0.0342
     51 H20         7.8710   23.3718   19.1911 H       1  <0>         0.0533
     52 H21         7.6064   25.1177   18.8464 H       1  <0>         0.0533
     53 H22         0.2717   26.1327   18.6495 H       1  <0>         0.0661
@<TRIPOS>BOND
     1     1    12    1
     2     2    15    1
     3     3     4   ar
     4     3     5   ar
     5     4     6   ar
     6     5    18   ar
     7     6    20   ar
     8     7     8   ar
     9     7    16   ar
    10     8    19   ar
    11     9    10    2
    12     9    17    1
    13    10    26    1
    14    11    16   ar
    15    11    17   ar
    16    12    30    1
    17    13    16    1
    18    13    23    1
    19    14    21    1
    20    14    26    1
    21    15    21    2
    22    15    29    1
    23    17    19   ar
    24    18    20   ar
    25    18    22    1
    26    19    26    1
    27    20    31    1
    28    21    25    1
    29    22    25    2
    30    22    29    1
    31    23    24    1
    32    23    30    1
    33    24    27    1
    34    24    28    2
    35     1    32    1
    36     1    33    1
    37     1    34    1
    38     2    35    1
    39     2    36    1
    40     2    37    1
    41     3    38    1
    42     4    39    1
    43     5    40    1
    44     6    41    1
    45     7    42    1
    46     8    43    1
    47     9    44    1
    48    10    45    1
    49    11    46    1
    50    12    47    1
    51    12    48    1
    52    13    49    1
    53    13    50    1
    54    14    51    1
    55    14    52    1
    56    23    53    1
@<TRIPOS>SUBSTRUCTURE
     1 <0>         1 TEMP              0 ****  ****    0 ROOT

