
##########                                Name:      208_A1001_2GTK
##########                    Molecular_Weight:             437.902
##########                DOCK_Rotatable_Bonds:                   8
##########                       Formal_Charge:             -0.9997
##########                     HBond_Acceptors:                   7
##########                        HBond_Donors:                   0
##########                         Heavy_Atoms:                  31
##########                            HA_RMSDs:               0.295
##########                            HA_RMSDh:               0.295
##########                            HA_RMSDm:               0.295
##########                          Grid_Score:          -17.697327
##########                     Grid_vdw_energy:          -58.896866
##########                      Grid_es_energy:           41.199539
##########           Internal_energy_repulsive:           10.183540

@<TRIPOS>MOLECULE
208_A1001_2GTK
 53 56 1 0 0
SMALL
USER_CHARGES


@<TRIPOS>ATOM
      1 C1          0.0868   28.2038   15.2176 C.3     1  <0>        -0.0415
      2 C2          7.8469   26.3473   15.8526 C.3     1  <0>        -0.0156
      3 C3          5.1139   19.6838   14.4519 C.ar    1  <0>        -0.0610
      4 C4          5.4956   19.5671   13.1129 C.ar    1  <0>        -0.0603
      5 C5          5.4770   20.8040   15.1831 C.ar    1  <0>        -0.0492
      6 C6          6.2380   20.5734   12.5096 C.ar    1  <0>        -0.0427
      7 C7          3.1766   27.1750   18.8757 C.ar    1  <0>        -0.0567
      8 C8          4.3924   26.5451   18.6605 C.ar    1  <0>        -0.0395
      9 C9          4.1001   23.4089   20.4767 C.2     1  <0>        -0.0388
     10 C10         5.3701   23.2952   20.0112 C.2     1  <0>        -0.0022
     11 C11         2.3654   25.3201   20.2286 C.ar    1  <0>        -0.0495
     12 C12        -0.1880   27.2597   16.3889 C.3     1  <0>         0.0457
     13 C13         0.8774   27.2886   19.9172 C.3     1  <0>         0.0040
     14 C14         7.0062   24.7246   18.6113 C.3     1  <0>         0.0612
     15 C15         7.3066   24.9634   16.0481 C.2     1  <0>         0.0820
     16 C16         2.1701   26.5702   19.6643 C.ar    1  <0>        -0.0439
     17 C17         3.5926   24.6682   20.0198 C.ar    1  <0>        -0.0022
     18 C18         6.2304   21.8320   14.5926 C.ar    1  <0>         0.0428
     19 C19         4.5718   25.2930   19.2610 C.ar    1  <0>         0.0411
     20 C20         6.6056   21.7051   13.2395 C.ar    1  <0>         0.0521
     21 C21         6.9662   24.3138   17.1731 C.2     1  <0>         0.0876
     22 C22         6.6011   22.9784   15.3974 C.2     1  <0>         0.1818
     23 C23        -0.0947   27.1371   18.7439 C.3     1  <0>         0.1016
     24 C24        -1.4165   27.7458   19.1078 C.2     1  <0>         0.0707
     25 N1          6.5099   23.0415   16.7682 N.2     1  <0>        -0.2237
     26 N2          5.7140   24.4505   19.2539 N.pl3   1  <0>        -0.3000
     27 O1         -1.5685   28.9980   18.9822 O.co2   1  <0>        -0.5471
     28 O2         -2.3134   26.9855   19.5796 O.co2   1  <0>        -0.5471
     29 O3          7.0888   24.1538   14.9512 O.3     1  <0>        -0.2931
     30 O4          0.4379   27.7470   17.5708 O.3     1  <0>        -0.3707
     31 Cl1         7.5440   22.9440   12.4359 Cl      1  <0>        -0.0828
     32 H1         -0.4018   27.8164   14.3114 H       1  <0>         0.0252
     33 H2         -0.3118   29.2023   15.4504 H       1  <0>         0.0252
     34 H3          1.1715   28.2720   15.0485 H       1  <0>         0.0252
     35 H4          8.0038   26.5321   14.7797 H       1  <0>         0.0298
     36 H5          7.1292   27.0804   16.2495 H       1  <0>         0.0298
     37 H6          8.8042   26.4457   16.3853 H       1  <0>         0.0298
     38 H7          4.5352   18.9000   14.9178 H       1  <0>         0.0618
     39 H8          5.2125   18.6925   12.5460 H       1  <0>         0.0618
     40 H9          5.1776   20.8873   16.2174 H       1  <0>         0.0625
     41 H10         6.5315   20.4803   11.4744 H       1  <0>         0.0632
     42 H11         2.9947   28.1435   18.4338 H       1  <0>         0.0621
     43 H12         5.1653   26.9990   18.0579 H       1  <0>         0.0636
     44 H13         3.5712   22.6852   21.0789 H       1  <0>         0.0637
     45 H14         6.0228   22.4533   20.1889 H       1  <0>         0.0784
     46 H15         1.5889   24.8552   20.8180 H       1  <0>         0.0627
     47 H16        -1.2735   27.1944   16.5546 H       1  <0>         0.0557
     48 H17         0.2120   26.2627   16.1520 H       1  <0>         0.0557
     49 H18         0.4101   26.8673   20.8195 H       1  <0>         0.0342
     50 H19         1.0905   28.3578   20.0634 H       1  <0>         0.0342
     51 H20         7.7950   24.1580   19.1279 H       1  <0>         0.0533
     52 H21         7.2208   25.8016   18.6744 H       1  <0>         0.0533
     53 H22        -0.2407   26.0679   18.5307 H       1  <0>         0.0661
@<TRIPOS>BOND
     1     1    12    1
     2     2    15    1
     3     3     4   ar
     4     3     5   ar
     5     4     6   ar
     6     5    18   ar
     7     6    20   ar
     8     7     8   ar
     9     7    16   ar
    10     8    19   ar
    11     9    10    2
    12     9    17    1
    13    10    26    1
    14    11    16   ar
    15    11    17   ar
    16    12    30    1
    17    13    16    1
    18    13    23    1
    19    14    21    1
    20    14    26    1
    21    15    21    2
    22    15    29    1
    23    17    19   ar
    24    18    20   ar
    25    18    22    1
    26    19    26    1
    27    20    31    1
    28    21    25    1
    29    22    25    2
    30    22    29    1
    31    23    24    1
    32    23    30    1
    33    24    27    1
    34    24    28    2
    35     1    32    1
    36     1    33    1
    37     1    34    1
    38     2    35    1
    39     2    36    1
    40     2    37    1
    41     3    38    1
    42     4    39    1
    43     5    40    1
    44     6    41    1
    45     7    42    1
    46     8    43    1
    47     9    44    1
    48    10    45    1
    49    11    46    1
    50    12    47    1
    51    12    48    1
    52    13    49    1
    53    13    50    1
    54    14    51    1
    55    14    52    1
    56    23    53    1
@<TRIPOS>SUBSTRUCTURE
     1 <0>         1 TEMP              0 ****  ****    0 ROOT

