
##########                                Name:      208_A1001_2GTK
##########                    Molecular_Weight:             437.902
##########                DOCK_Rotatable_Bonds:                   8
##########                       Formal_Charge:             -0.9997
##########                     HBond_Acceptors:                   7
##########                        HBond_Donors:                   0
##########                         Heavy_Atoms:                  31
##########                            HA_RMSDs:               0.567
##########                            HA_RMSDh:               0.567
##########                            HA_RMSDm:               0.567
##########                          Grid_Score:          -18.702152
##########                     Grid_vdw_energy:          -57.710354
##########                      Grid_es_energy:           39.008202
##########           Internal_energy_repulsive:           11.424347

@<TRIPOS>MOLECULE
208_A1001_2GTK
 53 56 1 0 0
SMALL
USER_CHARGES


@<TRIPOS>ATOM
      1 C1          0.1477   28.1226   14.9960 C.3     1  <0>        -0.0415
      2 C2          7.4494   26.2753   15.9688 C.3     1  <0>        -0.0156
      3 C3          5.7909   19.1940   14.9783 C.ar    1  <0>        -0.0610
      4 C4          6.1138   19.0837   13.6234 C.ar    1  <0>        -0.0603
      5 C5          5.9883   20.3934   15.6445 C.ar    1  <0>        -0.0492
      6 C6          6.6317   20.1752   12.9392 C.ar    1  <0>        -0.0427
      7 C7          3.1499   27.2841   18.8218 C.ar    1  <0>        -0.0567
      8 C8          4.3495   26.6035   18.6843 C.ar    1  <0>        -0.0395
      9 C9          3.8739   23.5669   20.6266 C.2     1  <0>        -0.0388
     10 C10         5.1560   23.3881   20.2182 C.2     1  <0>        -0.0022
     11 C11         2.2204   25.5230   20.2231 C.ar    1  <0>        -0.0495
     12 C12        -0.1936   27.2834   16.2281 C.3     1  <0>         0.0457
     13 C13         0.8178   27.5250   19.7637 C.3     1  <0>         0.0040
     14 C14         6.8956   24.6939   18.8224 C.3     1  <0>         0.0612
     15 C15         7.1254   24.8386   16.2449 C.2     1  <0>         0.0820
     16 C16         2.0924   26.7516   19.5957 C.ar    1  <0>        -0.0439
     17 C17         3.4304   24.8204   20.0934 C.ar    1  <0>        -0.0022
     18 C18         6.5137   21.5088   14.9716 C.ar    1  <0>         0.0428
     19 C19         4.4601   25.3752   19.3473 C.ar    1  <0>         0.0411
     20 C20         6.8314   21.3866   13.6034 C.ar    1  <0>         0.0521
     21 C21         6.9001   24.2060   17.4080 C.2     1  <0>         0.0876
     22 C22         6.7179   22.7388   15.7097 C.2     1  <0>         0.1818
     23 C23        -0.1376   27.3064   18.5873 C.3     1  <0>         0.1016
     24 C24        -1.4614   27.9420   18.8935 C.2     1  <0>         0.0707
     25 N1          6.6351   22.8602   17.0771 N.2     1  <0>        -0.2237
     26 N2          5.5705   24.4945   19.4241 N.pl3   1  <0>        -0.3000
     27 O1         -1.7790   29.0128   18.2941 O.co2   1  <0>        -0.5471
     28 O2         -2.1877   27.4078   19.7835 O.co2   1  <0>        -0.5471
     29 O3          7.0182   23.9485   15.1950 O.3     1  <0>        -0.2931
     30 O4          0.4155   27.8412   17.3874 O.3     1  <0>        -0.3707
     31 Cl1         7.4896   22.7319   12.6989 Cl      1  <0>        -0.0828
     32 H1         -0.3285   27.6815   14.1079 H       1  <0>         0.0252
     33 H2         -0.2213   29.1491   15.1380 H       1  <0>         0.0252
     34 H3          1.2386   28.1410   14.8559 H       1  <0>         0.0252
     35 H4          7.5637   26.4242   14.8850 H       1  <0>         0.0298
     36 H5          6.6347   26.9131   16.3424 H       1  <0>         0.0298
     37 H6          8.3876   26.5436   16.4766 H       1  <0>         0.0298
     38 H7          5.3868   18.3435   15.5072 H       1  <0>         0.0618
     39 H8          5.9603   18.1475   13.1072 H       1  <0>         0.0618
     40 H9          5.7355   20.4711   16.6916 H       1  <0>         0.0625
     41 H10         6.8803   20.0868   11.8920 H       1  <0>         0.0632
     42 H11         3.0204   28.2368   18.3298 H       1  <0>         0.0621
     43 H12         5.1610   27.0021   18.0935 H       1  <0>         0.0636
     44 H13         3.2962   22.8906   21.2391 H       1  <0>         0.0637
     45 H14         5.7704   22.5334   20.4598 H       1  <0>         0.0784
     46 H15         1.4054   25.1130   20.8011 H       1  <0>         0.0627
     47 H16        -1.2850   27.2677   16.3645 H       1  <0>         0.0557
     48 H17         0.1771   26.2581   16.0820 H       1  <0>         0.0557
     49 H18         0.3221   27.1922   20.6876 H       1  <0>         0.0342
     50 H19         1.0605   28.5960   19.8272 H       1  <0>         0.0342
     51 H20         7.6443   24.1331   19.4012 H       1  <0>         0.0533
     52 H21         7.1422   25.7658   18.8365 H       1  <0>         0.0533
     53 H22        -0.2861   26.2268   18.4376 H       1  <0>         0.0661
@<TRIPOS>BOND
     1     1    12    1
     2     2    15    1
     3     3     4   ar
     4     3     5   ar
     5     4     6   ar
     6     5    18   ar
     7     6    20   ar
     8     7     8   ar
     9     7    16   ar
    10     8    19   ar
    11     9    10    2
    12     9    17    1
    13    10    26    1
    14    11    16   ar
    15    11    17   ar
    16    12    30    1
    17    13    16    1
    18    13    23    1
    19    14    21    1
    20    14    26    1
    21    15    21    2
    22    15    29    1
    23    17    19   ar
    24    18    20   ar
    25    18    22    1
    26    19    26    1
    27    20    31    1
    28    21    25    1
    29    22    25    2
    30    22    29    1
    31    23    24    1
    32    23    30    1
    33    24    27    1
    34    24    28    2
    35     1    32    1
    36     1    33    1
    37     1    34    1
    38     2    35    1
    39     2    36    1
    40     2    37    1
    41     3    38    1
    42     4    39    1
    43     5    40    1
    44     6    41    1
    45     7    42    1
    46     8    43    1
    47     9    44    1
    48    10    45    1
    49    11    46    1
    50    12    47    1
    51    12    48    1
    52    13    49    1
    53    13    50    1
    54    14    51    1
    55    14    52    1
    56    23    53    1
@<TRIPOS>SUBSTRUCTURE
     1 <0>         1 TEMP              0 ****  ****    0 ROOT

