
##########                                Name:      208_A1001_2GTK
##########                    Molecular_Weight:             437.902
##########                DOCK_Rotatable_Bonds:                   8
##########                       Formal_Charge:             -0.9997
##########                     HBond_Acceptors:                   7
##########                        HBond_Donors:                   0
##########                         Heavy_Atoms:                  31
##########                            HA_RMSDs:               0.558
##########                            HA_RMSDh:               0.558
##########                            HA_RMSDm:               0.509
##########                          Grid_Score:          -12.477707
##########                     Grid_vdw_energy:          -52.248692
##########                      Grid_es_energy:           39.770985
##########           Internal_energy_repulsive:           10.924979

@<TRIPOS>MOLECULE
208_A1001_2GTK
 53 56 1 0 0
SMALL
USER_CHARGES


@<TRIPOS>ATOM
      1 C1         -0.0079   28.3047   15.1667 C.3     1  <0>        -0.0415
      2 C2          7.8071   26.1044   15.6792 C.3     1  <0>        -0.0156
      3 C3          4.9468   19.3538   15.2449 C.ar    1  <0>        -0.0610
      4 C4          5.1399   19.1300   13.8793 C.ar    1  <0>        -0.0603
      5 C5          5.3502   20.5502   15.8171 C.ar    1  <0>        -0.0492
      6 C6          5.7347   20.1056   13.0905 C.ar    1  <0>        -0.0427
      7 C7          2.9276   27.3154   18.7930 C.ar    1  <0>        -0.0567
      8 C8          4.1540   26.7009   18.5943 C.ar    1  <0>        -0.0395
      9 C9          3.9997   23.7208   20.6715 C.2     1  <0>        -0.0388
     10 C10         5.2589   23.6010   20.1791 C.2     1  <0>        -0.0022
     11 C11         2.2062   25.5599   20.3185 C.ar    1  <0>        -0.0495
     12 C12        -0.1994   27.3484   16.3447 C.3     1  <0>         0.0457
     13 C13         0.6559   27.4570   19.8901 C.3     1  <0>         0.0040
     14 C14         6.8151   24.9497   18.6174 C.3     1  <0>         0.0612
     15 C15         7.1829   24.7955   16.0566 C.2     1  <0>         0.0820
     16 C16         1.9606   26.7531   19.6588 C.ar    1  <0>        -0.0439
     17 C17         3.4448   24.9243   20.1275 C.ar    1  <0>        -0.0022
     18 C18         5.9564   21.5489   15.0374 C.ar    1  <0>         0.0428
     19 C19         4.3848   25.5083   19.2906 C.ar    1  <0>         0.0411
     20 C20         6.1418   21.3134   13.6597 C.ar    1  <0>         0.0521
     21 C21         6.7814   24.3364   17.2531 C.2     1  <0>         0.0876
     22 C22         6.3764   22.7784   15.6788 C.2     1  <0>         0.1818
     23 C23        -0.2959   27.2924   18.7020 C.3     1  <0>         0.1016
     24 C24        -1.6531   27.8125   19.0727 C.2     1  <0>         0.0707
     25 N1          6.2603   23.0456   17.0228 N.2     1  <0>        -0.2237
     26 N2          5.5494   24.6974   19.3190 N.pl3   1  <0>        -0.3000
     27 O1         -1.9103   29.0394   18.8844 O.co2   1  <0>        -0.5471
     28 O2         -2.4722   27.0104   19.6121 O.co2   1  <0>        -0.5471
     29 O3          6.9413   23.8477   15.0821 O.3     1  <0>        -0.2931
     30 O4          0.2114   27.9721   17.5564 O.3     1  <0>        -0.3707
     31 Cl1         6.8895   22.5099   12.6250 Cl      1  <0>        -0.0828
     32 H1         -0.3287   27.8113   14.2374 H       1  <0>         0.0252
     33 H2         -0.6112   29.2103   15.3279 H       1  <0>         0.0252
     34 H3          1.0540   28.5806   15.0875 H       1  <0>         0.0252
     35 H4          7.9972   26.1218   14.5959 H       1  <0>         0.0298
     36 H5          7.1254   26.9257   15.9449 H       1  <0>         0.0298
     37 H6          8.7572   26.2268   16.2201 H       1  <0>         0.0298
     38 H7          4.4824   18.5935   15.8554 H       1  <0>         0.0618
     39 H8          4.8259   18.1964   13.4364 H       1  <0>         0.0618
     40 H9          5.1968   20.7161   16.8732 H       1  <0>         0.0625
     41 H10         5.8827   19.9297   12.0352 H       1  <0>         0.0632
     42 H11         2.7066   28.2388   18.2782 H       1  <0>         0.0621
     43 H12         4.8969   27.1224   17.9334 H       1  <0>         0.0636
     44 H13         3.5080   23.0367   21.3472 H       1  <0>         0.0637
     45 H14         5.9394   22.7937   20.4062 H       1  <0>         0.0784
     46 H15         1.4596   25.1262   20.9673 H       1  <0>         0.0627
     47 H16        -1.2622   27.0752   16.4203 H       1  <0>         0.0557
     48 H17         0.4055   26.4446   16.1794 H       1  <0>         0.0557
     49 H18         0.1794   27.0320   20.7858 H       1  <0>         0.0342
     50 H19         0.8544   28.5289   20.0376 H       1  <0>         0.0342
     51 H20         7.6422   24.5081   19.1927 H       1  <0>         0.0533
     52 H21         6.9666   26.0351   18.5229 H       1  <0>         0.0533
     53 H22        -0.3792   26.2247   18.4505 H       1  <0>         0.0661
@<TRIPOS>BOND
     1     1    12    1
     2     2    15    1
     3     3     4   ar
     4     3     5   ar
     5     4     6   ar
     6     5    18   ar
     7     6    20   ar
     8     7     8   ar
     9     7    16   ar
    10     8    19   ar
    11     9    10    2
    12     9    17    1
    13    10    26    1
    14    11    16   ar
    15    11    17   ar
    16    12    30    1
    17    13    16    1
    18    13    23    1
    19    14    21    1
    20    14    26    1
    21    15    21    2
    22    15    29    1
    23    17    19   ar
    24    18    20   ar
    25    18    22    1
    26    19    26    1
    27    20    31    1
    28    21    25    1
    29    22    25    2
    30    22    29    1
    31    23    24    1
    32    23    30    1
    33    24    27    1
    34    24    28    2
    35     1    32    1
    36     1    33    1
    37     1    34    1
    38     2    35    1
    39     2    36    1
    40     2    37    1
    41     3    38    1
    42     4    39    1
    43     5    40    1
    44     6    41    1
    45     7    42    1
    46     8    43    1
    47     9    44    1
    48    10    45    1
    49    11    46    1
    50    12    47    1
    51    12    48    1
    52    13    49    1
    53    13    50    1
    54    14    51    1
    55    14    52    1
    56    23    53    1
@<TRIPOS>SUBSTRUCTURE
     1 <0>         1 TEMP              0 ****  ****    0 ROOT

