
##########                                Name:      TES_A1000_2AM9
##########                    Molecular_Weight:             290.446
##########                DOCK_Rotatable_Bonds:                   2
##########                       Formal_Charge:        -0.000199869
##########                     HBond_Acceptors:                   2
##########                        HBond_Donors:                   2
##########                         Heavy_Atoms:                  21
##########                            HA_RMSDs:               0.281
##########                            HA_RMSDh:               0.281
##########                            HA_RMSDm:               0.281
##########                          Grid_Score:          -34.524620
##########                     Grid_vdw_energy:          -33.633541
##########                      Grid_es_energy:           -0.891079
##########           Internal_energy_repulsive:           18.237074

@<TRIPOS>MOLECULE
TES_A1000_2AM9
 51 54 1 0 0
SMALL
USER_CHARGES


@<TRIPOS>ATOM
      1 C1         28.9176   -0.2986    6.1937 C.3     1  <0>        -0.0569
      2 C2         26.5928    3.7815    6.8308 C.3     1  <0>        -0.0556
      3 C3         26.8695   -1.3627    4.1682 C.3     1  <0>        -0.0470
      4 C4         28.1588   -2.1706    3.8890 C.3     1  <0>        -0.0261
      5 C5         25.0073    1.2244    4.3352 C.3     1  <0>        -0.0460
      6 C6         26.1160    6.3449    4.9744 C.3     1  <0>        -0.0224
      7 C7         28.7087    2.6137    5.0277 C.3     1  <0>        -0.0486
      8 C8         24.2392    2.3325    5.0676 C.3     1  <0>        -0.0309
      9 C9         27.0066    5.1174    4.6700 C.3     1  <0>        -0.0410
     10 C10        29.4794    1.4389    4.3810 C.3     1  <0>        -0.0447
     11 C11        24.1662    4.7893    4.6076 C.2     1  <0>        -0.0561
     12 C12        24.7079    6.1374    4.4932 C.3     1  <0>         0.0736
     13 C13        26.4806    1.1888    4.8375 C.3     1  <0>        -0.0337
     14 C14        27.3461    0.1144    4.1332 C.3     1  <0>        -0.0301
     15 C15        27.1864    2.5607    4.6091 C.3     1  <0>        -0.0288
     16 C16        29.2986   -1.1224    3.7629 C.3     1  <0>         0.0609
     17 C17        24.9113    3.6923    4.9579 C.2     1  <0>        -0.0649
     18 C18        28.8197    0.0579    4.6576 C.3     1  <0>        -0.0030
     19 C19        26.4535    3.7772    5.2809 C.3     1  <0>        -0.0078
     20 O1         23.9669    7.1140    3.9784 O.3     1  <0>        -0.3878
     21 O2         30.5540   -1.6625    4.2221 O.3     1  <0>        -0.3912
     22 H1         28.4476   -1.2766    6.3744 H       1  <0>         0.0236
     23 H2         29.9751   -0.3391    6.4938 H       1  <0>         0.0236
     24 H3         28.3985    0.4719    6.7826 H       1  <0>         0.0236
     25 H4         26.2011    2.8374    7.2373 H       1  <0>         0.0238
     26 H5         27.6535    3.8856    7.1031 H       1  <0>         0.0238
     27 H6         26.0225    4.6246    7.2477 H       1  <0>         0.0238
     28 H7         26.1010   -1.5554    3.4052 H       1  <0>         0.0269
     29 H8         26.4361   -1.6223    5.1454 H       1  <0>         0.0269
     30 H9         28.3644   -2.8710    4.7119 H       1  <0>         0.0290
     31 H10        28.0601   -2.7510    2.9597 H       1  <0>         0.0290
     32 H11        24.5292    0.2542    4.5355 H       1  <0>         0.0271
     33 H12        24.9946    1.4242    3.2536 H       1  <0>         0.0271
     34 H13        26.0983    6.5089    6.0620 H       1  <0>         0.0293
     35 H14        26.5383    7.2240    4.4656 H       1  <0>         0.0293
     36 H15        28.7867    2.5399    6.1224 H       1  <0>         0.0268
     37 H16        29.1454    3.5646    4.6884 H       1  <0>         0.0268
     38 H17        23.2344    2.4068    4.6261 H       1  <0>         0.0310
     39 H18        24.1751    2.0633    6.1322 H       1  <0>         0.0310
     40 H19        27.0655    4.9984    3.5781 H       1  <0>         0.0275
     41 H20        28.0038    5.3029    5.0957 H       1  <0>         0.0275
     42 H21        29.5050    1.5987    3.2930 H       1  <0>         0.0271
     43 H22        30.4989    1.4245    4.7937 H       1  <0>         0.0271
     44 H23        23.1153    4.6455    4.4045 H       1  <0>         0.0597
     45 H24        24.5410    7.1993    4.2598 H       1  <0>         0.0638
     46 H25        26.4051    0.9466    5.9079 H       1  <0>         0.0307
     47 H26        27.2501    0.4873    3.1028 H       1  <0>         0.0310
     48 H27        27.1282    2.6543    3.5147 H       1  <0>         0.0312
     49 H28        29.4806   -0.8118    2.7234 H       1  <0>         0.0599
     50 H29        23.1563    6.7522    3.6398 H       1  <0>         0.2102
     51 H30        31.2669   -1.1184    3.9087 H       1  <0>         0.2098
@<TRIPOS>BOND
     1     1    18    1
     2     2    19    1
     3     3     4    1
     4     3    14    1
     5     4    16    1
     6     5     8    1
     7     5    13    1
     8     6     9    1
     9     6    12    1
    10     7    10    1
    11     7    15    1
    12     8    17    1
    13     9    19    1
    14    10    18    1
    15    11    12    1
    16    11    17    2
    17    12    20    1
    18    13    14    1
    19    13    15    1
    20    14    18    1
    21    15    19    1
    22    16    18    1
    23    16    21    1
    24    17    19    1
    25     1    22    1
    26     1    23    1
    27     1    24    1
    28     2    25    1
    29     2    26    1
    30     2    27    1
    31     3    28    1
    32     3    29    1
    33     4    30    1
    34     4    31    1
    35     5    32    1
    36     5    33    1
    37     6    34    1
    38     6    35    1
    39     7    36    1
    40     7    37    1
    41     8    38    1
    42     8    39    1
    43     9    40    1
    44     9    41    1
    45    10    42    1
    46    10    43    1
    47    11    44    1
    48    12    45    1
    49    13    46    1
    50    14    47    1
    51    15    48    1
    52    16    49    1
    53    20    50    1
    54    21    51    1
@<TRIPOS>SUBSTRUCTURE
     1 <0>         1 TEMP              0 ****  ****    0 ROOT

