
##########                                Name:      TES_A1000_2AM9
##########                    Molecular_Weight:             290.446
##########                DOCK_Rotatable_Bonds:                   2
##########                       Formal_Charge:        -0.000199869
##########                     HBond_Acceptors:                   2
##########                        HBond_Donors:                   2
##########                         Heavy_Atoms:                  21
##########                            HA_RMSDs:               0.328
##########                            HA_RMSDh:               0.328
##########                            HA_RMSDm:               0.328
##########                          Grid_Score:          -36.522327
##########                     Grid_vdw_energy:          -36.685974
##########                      Grid_es_energy:            0.163646
##########           Internal_energy_repulsive:           18.237074

@<TRIPOS>MOLECULE
TES_A1000_2AM9
 51 54 1 0 0
SMALL
USER_CHARGES


@<TRIPOS>ATOM
      1 C1         28.5827   -0.2537    6.1522 C.3     1  <0>        -0.0569
      2 C2         26.3813    3.8973    6.7681 C.3     1  <0>        -0.0556
      3 C3         26.4165   -1.3317    4.2614 C.3     1  <0>        -0.0470
      4 C4         27.6728   -2.1779    3.9472 C.3     1  <0>        -0.0261
      5 C5         24.6216    1.3021    4.4338 C.3     1  <0>        -0.0460
      6 C6         25.8717    6.4127    4.8554 C.3     1  <0>        -0.0224
      7 C7         28.3817    2.6252    4.9049 C.3     1  <0>        -0.0486
      8 C8         23.9142    2.4501    5.1660 C.3     1  <0>        -0.0309
      9 C9         26.7196    5.1558    4.5485 C.3     1  <0>        -0.0410
     10 C10        29.0943    1.4132    4.2602 C.3     1  <0>        -0.0447
     11 C11        23.8729    4.8925    4.6317 C.2     1  <0>        -0.0561
     12 C12        24.4378    6.2234    4.4486 C.3     1  <0>         0.0736
     13 C13        26.1162    1.2476    4.8664 C.3     1  <0>        -0.0337
     14 C14        26.9231    0.1320    4.1565 C.3     1  <0>        -0.0301
     15 C15        26.8401    2.5949    4.5610 C.3     1  <0>        -0.0288
     16 C16        28.8279   -1.1610    3.7337 C.3     1  <0>         0.0609
     17 C17        24.6098    3.7897    4.9810 C.2     1  <0>        -0.0649
     18 C18        28.4186    0.0573    4.6119 C.3     1  <0>        -0.0030
     19 C19        26.1673    3.8484    5.2276 C.3     1  <0>        -0.0078
     20 O1         23.6944    7.2006    3.9385 O.3     1  <0>        -0.3878
     21 O2         30.0918   -1.7159    4.1497 O.3     1  <0>        -0.3912
     22 H1         28.1007   -1.2144    6.3862 H       1  <0>         0.0236
     23 H2         29.6523   -0.3097    6.4029 H       1  <0>         0.0236
     24 H3         28.1096    0.5465    6.7402 H       1  <0>         0.0236
     25 H4         25.9890    2.9757    7.2228 H       1  <0>         0.0238
     26 H5         27.4558    3.9850    6.9863 H       1  <0>         0.0238
     27 H6         25.8503    4.7661    7.1845 H       1  <0>         0.0238
     28 H7         25.6081   -1.5299    3.5423 H       1  <0>         0.0269
     29 H8         26.0252   -1.5508    5.2658 H       1  <0>         0.0269
     30 H9         27.9025   -2.8571    4.7814 H       1  <0>         0.0290
     31 H10        27.5167   -2.7842    3.0428 H       1  <0>         0.0290
     32 H11        24.1326    0.3501    4.6876 H       1  <0>         0.0271
     33 H12        24.5611    1.4687    3.3482 H       1  <0>         0.0271
     34 H13        25.9101    6.6105    5.9368 H       1  <0>         0.0293
     35 H14        26.2881    7.2655    4.2993 H       1  <0>         0.0293
     36 H15        28.5107    2.5834    5.9964 H       1  <0>         0.0268
     37 H16        28.8222    3.5546    4.5149 H       1  <0>         0.0268
     38 H17        22.8911    2.5341    4.7706 H       1  <0>         0.0310
     39 H18        23.8956    2.2155    6.2405 H       1  <0>         0.0310
     40 H19        26.7231    5.0017    3.4593 H       1  <0>         0.0275
     41 H20        27.7399    5.3310    4.9202 H       1  <0>         0.0275
     42 H21        29.0710    1.5387    3.1676 H       1  <0>         0.0271
     43 H22        30.1320    1.3878    4.6242 H       1  <0>         0.0271
     44 H23        22.8105    4.7671    4.4834 H       1  <0>         0.0597
     45 H24        24.2831    7.2811    4.1895 H       1  <0>         0.0638
     46 H25        26.0872    1.0405    5.9463 H       1  <0>         0.0307
     47 H26        26.7857    0.4751    3.1204 H       1  <0>         0.0310
     48 H27        26.7312    2.6560    3.4681 H       1  <0>         0.0312
     49 H28        28.9663   -0.8871    2.6773 H       1  <0>         0.0599
     50 H29        22.8729    6.8425    3.6232 H       1  <0>         0.2102
     51 H30        30.7965   -1.1415    3.8741 H       1  <0>         0.2098
@<TRIPOS>BOND
     1     1    18    1
     2     2    19    1
     3     3     4    1
     4     3    14    1
     5     4    16    1
     6     5     8    1
     7     5    13    1
     8     6     9    1
     9     6    12    1
    10     7    10    1
    11     7    15    1
    12     8    17    1
    13     9    19    1
    14    10    18    1
    15    11    12    1
    16    11    17    2
    17    12    20    1
    18    13    14    1
    19    13    15    1
    20    14    18    1
    21    15    19    1
    22    16    18    1
    23    16    21    1
    24    17    19    1
    25     1    22    1
    26     1    23    1
    27     1    24    1
    28     2    25    1
    29     2    26    1
    30     2    27    1
    31     3    28    1
    32     3    29    1
    33     4    30    1
    34     4    31    1
    35     5    32    1
    36     5    33    1
    37     6    34    1
    38     6    35    1
    39     7    36    1
    40     7    37    1
    41     8    38    1
    42     8    39    1
    43     9    40    1
    44     9    41    1
    45    10    42    1
    46    10    43    1
    47    11    44    1
    48    12    45    1
    49    13    46    1
    50    14    47    1
    51    15    48    1
    52    16    49    1
    53    20    50    1
    54    21    51    1
@<TRIPOS>SUBSTRUCTURE
     1 <0>         1 TEMP              0 ****  ****    0 ROOT

