
##########                                Name:      TES_A1000_2AM9
##########                    Molecular_Weight:             290.446
##########                DOCK_Rotatable_Bonds:                   2
##########                       Formal_Charge:        -0.000199869
##########                     HBond_Acceptors:                   2
##########                        HBond_Donors:                   2
##########                         Heavy_Atoms:                  21
##########                            HA_RMSDs:               0.222
##########                            HA_RMSDh:               0.222
##########                            HA_RMSDm:               0.222
##########                          Grid_Score:          -35.893288
##########                     Grid_vdw_energy:          -35.754951
##########                      Grid_es_energy:           -0.138337
##########           Internal_energy_repulsive:           18.237072

@<TRIPOS>MOLECULE
TES_A1000_2AM9
 51 54 1 0 0
SMALL
USER_CHARGES


@<TRIPOS>ATOM
      1 C1         28.6493   -0.1595    6.2822 C.3     1  <0>        -0.0569
      2 C2         26.4929    4.0270    6.8110 C.3     1  <0>        -0.0556
      3 C3         26.5471   -1.2001    4.3004 C.3     1  <0>        -0.0470
      4 C4         27.8013   -2.0667    4.0381 C.3     1  <0>        -0.0261
      5 C5         24.7903    1.4631    4.4010 C.3     1  <0>        -0.0460
      6 C6         26.1059    6.5519    4.8822 C.3     1  <0>        -0.0224
      7 C7         28.5486    2.7232    5.0317 C.3     1  <0>        -0.0486
      8 C8         24.0718    2.6220    5.1045 C.3     1  <0>        -0.0309
      9 C9         26.9450    5.2814    4.6094 C.3     1  <0>        -0.0410
     10 C10        29.2676    1.5001    4.4158 C.3     1  <0>        -0.0447
     11 C11        24.0935    5.0652    4.5724 C.2     1  <0>        -0.0561
     12 C12        24.6875    6.3867    4.4152 C.3     1  <0>         0.0736
     13 C13        26.2643    1.3835    4.8960 C.3     1  <0>        -0.0337
     14 C14        27.0817    0.2552    4.2190 C.3     1  <0>        -0.0301
     15 C15        27.0226    2.7188    4.6232 C.3     1  <0>        -0.0288
     16 C16        28.9810   -1.0689    3.8748 C.3     1  <0>         0.0609
     17 C17        24.7967    3.9501    4.9509 C.2     1  <0>        -0.0649
     18 C18        28.5554    0.1553    4.7368 C.3     1  <0>        -0.0030
     19 C19        26.3432    3.9828    5.2627 C.3     1  <0>        -0.0078
     20 O1         23.9825    7.3765    3.8757 O.3     1  <0>        -0.3878
     21 O2         30.2170   -1.6450    4.3428 O.3     1  <0>        -0.3912
     22 H1         28.1421   -1.1123    6.4944 H       1  <0>         0.0236
     23 H2         29.7064   -0.2335    6.5775 H       1  <0>         0.0236
     24 H3         28.1652    0.6480    6.8509 H       1  <0>         0.0236
     25 H4         26.0667    3.1117    7.2475 H       1  <0>         0.0238
     26 H5         27.5587    4.0967    7.0743 H       1  <0>         0.0238
     27 H6         25.9594    4.9041    7.2060 H       1  <0>         0.0238
     28 H7         25.7664   -1.3843    3.5477 H       1  <0>         0.0269
     29 H8         26.1102   -1.4133    5.2872 H       1  <0>         0.0269
     30 H9         27.9844   -2.7503    4.8803 H       1  <0>         0.0290
     31 H10        27.6734   -2.6696    3.1270 H       1  <0>         0.0290
     32 H11        24.2754    0.5191    4.6326 H       1  <0>         0.0271
     33 H12        24.7783    1.6314    3.3140 H       1  <0>         0.0271
     34 H13        26.1020    6.7482    5.9645 H       1  <0>         0.0293
     35 H14        26.5594    7.3981    4.3453 H       1  <0>         0.0293
     36 H15        28.6309    2.6785    6.1277 H       1  <0>         0.0268
     37 H16        29.0205    3.6455    4.6620 H       1  <0>         0.0268
     38 H17        23.0678    2.7234    4.6666 H       1  <0>         0.0310
     39 H18        24.0042    2.3870    6.1770 H       1  <0>         0.0310
     40 H19        26.9918    5.1280    3.5211 H       1  <0>         0.0275
     41 H20        27.9516    5.4393    5.0239 H       1  <0>         0.0275
     42 H21        29.2923    1.6267    3.3234 H       1  <0>         0.0271
     43 H22        30.2885    1.4572    4.8231 H       1  <0>         0.0271
     44 H23        23.0363    4.9576    4.3794 H       1  <0>         0.0597
     45 H24        24.5614    7.4471    4.1513 H       1  <0>         0.0638
     46 H25        26.1865    1.1760    5.9735 H       1  <0>         0.0307
     47 H26        26.9937    0.6012    3.1786 H       1  <0>         0.0310
     48 H27        26.9608    2.7825    3.5269 H       1  <0>         0.0312
     49 H28        29.1682   -0.7965    2.8256 H       1  <0>         0.0599
     50 H29        23.0796    7.1011    3.7687 H       1  <0>         0.2102
     51 H30        30.9319   -1.0431    4.1726 H       1  <0>         0.2098
@<TRIPOS>BOND
     1     1    18    1
     2     2    19    1
     3     3     4    1
     4     3    14    1
     5     4    16    1
     6     5     8    1
     7     5    13    1
     8     6     9    1
     9     6    12    1
    10     7    10    1
    11     7    15    1
    12     8    17    1
    13     9    19    1
    14    10    18    1
    15    11    12    1
    16    11    17    2
    17    12    20    1
    18    13    14    1
    19    13    15    1
    20    14    18    1
    21    15    19    1
    22    16    18    1
    23    16    21    1
    24    17    19    1
    25     1    22    1
    26     1    23    1
    27     1    24    1
    28     2    25    1
    29     2    26    1
    30     2    27    1
    31     3    28    1
    32     3    29    1
    33     4    30    1
    34     4    31    1
    35     5    32    1
    36     5    33    1
    37     6    34    1
    38     6    35    1
    39     7    36    1
    40     7    37    1
    41     8    38    1
    42     8    39    1
    43     9    40    1
    44     9    41    1
    45    10    42    1
    46    10    43    1
    47    11    44    1
    48    12    45    1
    49    13    46    1
    50    14    47    1
    51    15    48    1
    52    16    49    1
    53    20    50    1
    54    21    51    1
@<TRIPOS>SUBSTRUCTURE
     1 <0>         1 TEMP              0 ****  ****    0 ROOT

