
##########                                Name:      TES_A1000_2AM9
##########                    Molecular_Weight:             290.446
##########                DOCK_Rotatable_Bonds:                   2
##########                       Formal_Charge:        -0.000199869
##########                     HBond_Acceptors:                   2
##########                        HBond_Donors:                   2
##########                         Heavy_Atoms:                  21
##########                            HA_RMSDs:               0.224
##########                            HA_RMSDh:               0.224
##########                            HA_RMSDm:               0.224
##########                          Grid_Score:          -35.445885
##########                     Grid_vdw_energy:          -35.744469
##########                      Grid_es_energy:            0.298586
##########           Internal_energy_repulsive:           18.237082

@<TRIPOS>MOLECULE
TES_A1000_2AM9
 51 54 1 0 0
SMALL
USER_CHARGES


@<TRIPOS>ATOM
      1 C1         28.6509   -0.1880    6.2815 C.3     1  <0>        -0.0569
      2 C2         26.4947    3.9991    6.8069 C.3     1  <0>        -0.0556
      3 C3         26.5477   -1.2307    4.3019 C.3     1  <0>        -0.0470
      4 C4         27.8018   -2.0975    4.0399 C.3     1  <0>        -0.0261
      5 C5         24.7909    1.4326    4.4004 C.3     1  <0>        -0.0460
      6 C6         26.1067    6.5219    4.8755 C.3     1  <0>        -0.0224
      7 C7         28.5495    2.6934    5.0279 C.3     1  <0>        -0.0486
      8 C8         24.0728    2.5923    5.1030 C.3     1  <0>        -0.0309
      9 C9         26.9457    5.2511    4.6037 C.3     1  <0>        -0.0410
     10 C10        29.2682    1.4696    4.4130 C.3     1  <0>        -0.0447
     11 C11        24.0941    5.0349    4.5683 C.2     1  <0>        -0.0561
     12 C12        24.6880    6.3562    4.4094 C.3     1  <0>         0.0736
     13 C13        26.2652    1.3535    4.8948 C.3     1  <0>        -0.0337
     14 C14        27.0823    0.2245    4.2186 C.3     1  <0>        -0.0301
     15 C15        27.0233    2.6886    4.6202 C.3     1  <0>        -0.0288
     16 C16        28.9814   -1.1000    3.8749 C.3     1  <0>         0.0609
     17 C17        24.7975    3.9202    4.9476 C.2     1  <0>        -0.0649
     18 C18        28.5562    0.1252    4.7358 C.3     1  <0>        -0.0030
     19 C19        26.3442    3.9532    5.2587 C.3     1  <0>        -0.0078
     20 O1         23.9828    7.3454    3.8692 O.3     1  <0>        -0.3878
     21 O2         30.2176   -1.6756    4.3429 O.3     1  <0>        -0.3912
     22 H1         28.1437   -1.1405    6.4949 H       1  <0>         0.0236
     23 H2         29.7081   -0.2616    6.5764 H       1  <0>         0.0236
     24 H3         28.1670    0.6202    6.8496 H       1  <0>         0.0236
     25 H4         26.0687    3.0842    7.2445 H       1  <0>         0.0238
     26 H5         27.5605    4.0691    7.0696 H       1  <0>         0.0238
     27 H6         25.9613    4.8766    7.2011 H       1  <0>         0.0238
     28 H7         25.7667   -1.4157    3.5497 H       1  <0>         0.0269
     29 H8         26.1113   -1.4429    5.2891 H       1  <0>         0.0269
     30 H9         27.9853   -2.7802    4.8827 H       1  <0>         0.0290
     31 H10        27.6734   -2.7015    3.1295 H       1  <0>         0.0290
     32 H11        24.2761    0.4888    4.6333 H       1  <0>         0.0271
     33 H12        24.7784    1.5997    3.3133 H       1  <0>         0.0271
     34 H13        26.1033    6.7194    5.9577 H       1  <0>         0.0293
     35 H14        26.5599    7.3675    4.3375 H       1  <0>         0.0293
     36 H15        28.6324    2.6499    6.1239 H       1  <0>         0.0268
     37 H16        29.0212    3.6153    4.6570 H       1  <0>         0.0268
     38 H17        23.0686    2.6931    4.6655 H       1  <0>         0.0310
     39 H18        24.0057    2.3584    6.1758 H       1  <0>         0.0310
     40 H19        26.9919    5.0966    3.5156 H       1  <0>         0.0275
     41 H20        27.9525    5.4095    5.0175 H       1  <0>         0.0275
     42 H21        29.2924    1.5951    3.3204 H       1  <0>         0.0271
     43 H22        30.2893    1.4272    4.8199 H       1  <0>         0.0271
     44 H23        23.0368    4.9270    4.3759 H       1  <0>         0.0597
     45 H24        24.5618    7.4163    4.1445 H       1  <0>         0.0638
     46 H25        26.1879    1.1472    5.9725 H       1  <0>         0.0307
     47 H26        26.9937    0.5694    3.1779 H       1  <0>         0.0310
     48 H27        26.9610    2.7511    3.5238 H       1  <0>         0.0312
     49 H28        29.1681   -0.8287    2.8253 H       1  <0>         0.0599
     50 H29        23.1270    7.0218    3.6135 H       1  <0>         0.2102
     51 H30        30.8203   -0.9812    4.5818 H       1  <0>         0.2098
@<TRIPOS>BOND
     1     1    18    1
     2     2    19    1
     3     3     4    1
     4     3    14    1
     5     4    16    1
     6     5     8    1
     7     5    13    1
     8     6     9    1
     9     6    12    1
    10     7    10    1
    11     7    15    1
    12     8    17    1
    13     9    19    1
    14    10    18    1
    15    11    12    1
    16    11    17    2
    17    12    20    1
    18    13    14    1
    19    13    15    1
    20    14    18    1
    21    15    19    1
    22    16    18    1
    23    16    21    1
    24    17    19    1
    25     1    22    1
    26     1    23    1
    27     1    24    1
    28     2    25    1
    29     2    26    1
    30     2    27    1
    31     3    28    1
    32     3    29    1
    33     4    30    1
    34     4    31    1
    35     5    32    1
    36     5    33    1
    37     6    34    1
    38     6    35    1
    39     7    36    1
    40     7    37    1
    41     8    38    1
    42     8    39    1
    43     9    40    1
    44     9    41    1
    45    10    42    1
    46    10    43    1
    47    11    44    1
    48    12    45    1
    49    13    46    1
    50    14    47    1
    51    15    48    1
    52    16    49    1
    53    20    50    1
    54    21    51    1
@<TRIPOS>SUBSTRUCTURE
     1 <0>         1 TEMP              0 ****  ****    0 ROOT

