
##########                                Name:      TES_A1000_2AM9
##########                    Molecular_Weight:             290.446
##########                DOCK_Rotatable_Bonds:                   2
##########                       Formal_Charge:        -0.000199869
##########                     HBond_Acceptors:                   2
##########                        HBond_Donors:                   2
##########                         Heavy_Atoms:                  21
##########                            HA_RMSDs:               0.227
##########                            HA_RMSDh:               0.227
##########                            HA_RMSDm:               0.227
##########                          Grid_Score:          -35.432278
##########                     Grid_vdw_energy:          -35.579853
##########                      Grid_es_energy:            0.147575
##########           Internal_energy_repulsive:           18.237074

@<TRIPOS>MOLECULE
TES_A1000_2AM9
 51 54 1 0 0
SMALL
USER_CHARGES


@<TRIPOS>ATOM
      1 C1         28.6576   -0.2129    6.2767 C.3     1  <0>        -0.0569
      2 C2         26.5001    3.9716    6.8164 C.3     1  <0>        -0.0556
      3 C3         26.5497   -1.2531    4.3008 C.3     1  <0>        -0.0470
      4 C4         27.8037   -2.1186    4.0336 C.3     1  <0>        -0.0261
      5 C5         24.7915    1.4088    4.4095 C.3     1  <0>        -0.0460
      6 C6         26.1051    6.4980    4.8911 C.3     1  <0>        -0.0224
      7 C7         28.5509    2.6709    5.0292 C.3     1  <0>        -0.0486
      8 C8         24.0744    2.5666    5.1163 C.3     1  <0>        -0.0309
      9 C9         26.9442    5.2283    4.6144 C.3     1  <0>        -0.0410
     10 C10        29.2687    1.4488    4.4099 C.3     1  <0>        -0.0447
     11 C11        24.0927    5.0103    4.5865 C.2     1  <0>        -0.0561
     12 C12        24.6853    6.3323    4.4285 C.3     1  <0>         0.0736
     13 C13        26.2671    1.3297    4.8996 C.3     1  <0>        -0.0337
     14 C14        27.0831    0.2026    4.2190 C.3     1  <0>        -0.0301
     15 C15        27.0236    2.6658    4.6257 C.3     1  <0>        -0.0288
     16 C16        28.9822   -1.1199    3.8674 C.3     1  <0>         0.0609
     17 C17        24.7979    3.8953    4.9616 C.2     1  <0>        -0.0649
     18 C18        28.5585    0.1033    4.7319 C.3     1  <0>        -0.0030
     19 C19        26.3454    3.9287    5.2685 C.3     1  <0>        -0.0078
     20 O1         23.9779    7.3221    3.8923 O.3     1  <0>        -0.3878
     21 O2         30.2200   -1.6956    4.3309 O.3     1  <0>        -0.3912
     22 H1         28.1517   -1.1662    6.4896 H       1  <0>         0.0236
     23 H2         29.7157   -0.2864    6.5686 H       1  <0>         0.0236
     24 H3         28.1748    0.5938    6.8477 H       1  <0>         0.0236
     25 H4         26.0759    3.0556    7.2533 H       1  <0>         0.0238
     26 H5         27.5666    4.0418    7.0763 H       1  <0>         0.0238
     27 H6         25.9672    4.8480    7.2138 H       1  <0>         0.0238
     28 H7         25.7668   -1.4371    3.5504 H       1  <0>         0.0269
     29 H8         26.1162   -1.4675    5.2888 H       1  <0>         0.0269
     30 H9         27.9899   -2.8028    4.8746 H       1  <0>         0.0290
     31 H10        27.6732   -2.7208    3.1224 H       1  <0>         0.0290
     32 H11        24.2779    0.4642    4.6419 H       1  <0>         0.0271
     33 H12        24.7758    1.5781    3.3227 H       1  <0>         0.0271
     34 H13        26.1046    6.6934    5.9736 H       1  <0>         0.0293
     35 H14        26.5563    7.3450    4.3536 H       1  <0>         0.0293
     36 H15        28.6368    2.6253    6.1249 H       1  <0>         0.0268
     37 H16        29.0209    3.5939    4.6588 H       1  <0>         0.0268
     38 H17        23.0690    2.6676    4.6817 H       1  <0>         0.0310
     39 H18        24.0104    2.3305    6.1888 H       1  <0>         0.0310
     40 H19        26.9876    5.0760    3.5259 H       1  <0>         0.0275
     41 H20        27.9520    5.3866    5.0258 H       1  <0>         0.0275
     42 H21        29.2898    1.5765    3.3175 H       1  <0>         0.0271
     43 H22        30.2910    1.4063    4.8139 H       1  <0>         0.0271
     44 H23        23.0350    4.9021    4.3967 H       1  <0>         0.0597
     45 H24        24.5576    7.3928    4.1661 H       1  <0>         0.0638
     46 H25        26.1929    1.1212    5.9772 H       1  <0>         0.0307
     47 H26        26.9915    0.5495    3.1792 H       1  <0>         0.0310
     48 H27        26.9582    2.7305    3.5296 H       1  <0>         0.0312
     49 H28        29.1658   -0.8464    2.8179 H       1  <0>         0.0599
     50 H29        23.2099    6.9657    3.4614 H       1  <0>         0.2102
     51 H30        30.9391   -1.1103    4.1240 H       1  <0>         0.2098
@<TRIPOS>BOND
     1     1    18    1
     2     2    19    1
     3     3     4    1
     4     3    14    1
     5     4    16    1
     6     5     8    1
     7     5    13    1
     8     6     9    1
     9     6    12    1
    10     7    10    1
    11     7    15    1
    12     8    17    1
    13     9    19    1
    14    10    18    1
    15    11    12    1
    16    11    17    2
    17    12    20    1
    18    13    14    1
    19    13    15    1
    20    14    18    1
    21    15    19    1
    22    16    18    1
    23    16    21    1
    24    17    19    1
    25     1    22    1
    26     1    23    1
    27     1    24    1
    28     2    25    1
    29     2    26    1
    30     2    27    1
    31     3    28    1
    32     3    29    1
    33     4    30    1
    34     4    31    1
    35     5    32    1
    36     5    33    1
    37     6    34    1
    38     6    35    1
    39     7    36    1
    40     7    37    1
    41     8    38    1
    42     8    39    1
    43     9    40    1
    44     9    41    1
    45    10    42    1
    46    10    43    1
    47    11    44    1
    48    12    45    1
    49    13    46    1
    50    14    47    1
    51    15    48    1
    52    16    49    1
    53    20    50    1
    54    21    51    1
@<TRIPOS>SUBSTRUCTURE
     1 <0>         1 TEMP              0 ****  ****    0 ROOT

