
##########                                Name:      TES_A1000_2AM9
##########                    Molecular_Weight:             290.446
##########                DOCK_Rotatable_Bonds:                   2
##########                       Formal_Charge:        -0.000199869
##########                     HBond_Acceptors:                   2
##########                        HBond_Donors:                   2
##########                         Heavy_Atoms:                  21
##########                            HA_RMSDs:               0.453
##########                            HA_RMSDh:               0.453
##########                            HA_RMSDm:               0.453
##########                          Grid_Score:          -31.604275
##########                     Grid_vdw_energy:          -31.752699
##########                      Grid_es_energy:            0.148425
##########           Internal_energy_repulsive:           18.237076

@<TRIPOS>MOLECULE
TES_A1000_2AM9
 51 54 1 0 0
SMALL
USER_CHARGES


@<TRIPOS>ATOM
      1 C1         28.8136   -0.4708    6.3013 C.3     1  <0>        -0.0569
      2 C2         26.3536    3.5521    6.7719 C.3     1  <0>        -0.0556
      3 C3         27.1701   -1.4093    3.8830 C.3     1  <0>        -0.0470
      4 C4         28.5001   -2.1933    3.7859 C.3     1  <0>        -0.0261
      5 C5         25.2701    1.1556    3.8800 C.3     1  <0>        -0.0460
      6 C6         26.1740    6.2281    5.0249 C.3     1  <0>        -0.0224
      7 C7         28.7709    2.5096    5.3017 C.3     1  <0>        -0.0486
      8 C8         24.3689    2.2118    4.5331 C.3     1  <0>        -0.0309
      9 C9         27.1222    5.0256    4.8064 C.3     1  <0>        -0.0410
     10 C10        29.6605    1.3813    4.7290 C.3     1  <0>        -0.0447
     11 C11        24.3423    4.6928    4.2224 C.2     1  <0>        -0.0561
     12 C12        24.8759    6.0472    4.2903 C.3     1  <0>         0.0736
     13 C13        26.6322    1.0926    4.6316 C.3     1  <0>        -0.0337
     14 C14        27.6239    0.0686    4.0254 C.3     1  <0>        -0.0301
     15 C15        27.3471    2.4787    4.6181 C.3     1  <0>        -0.0288
     16 C16        29.6289   -1.1354    3.9293 C.3     1  <0>         0.0609
     17 C17        25.0299    3.5780    4.6294 C.2     1  <0>        -0.0649
     18 C18        28.9826   -0.0167    4.7975 C.3     1  <0>        -0.0030
     19 C19        26.4897    3.6470    5.2246 C.3     1  <0>        -0.0078
     20 O1         24.2230    7.0525    3.7149 O.3     1  <0>        -0.3878
     21 O2         30.7914   -1.6998    4.5684 O.3     1  <0>        -0.3912
     22 H1         28.3334   -1.4600    6.3344 H       1  <0>         0.0236
     23 H2         29.8021   -0.5272    6.7804 H       1  <0>         0.0236
     24 H3         28.1876    0.2585    6.8363 H       1  <0>         0.0236
     25 H4         25.9102    2.5826    7.0428 H       1  <0>         0.0238
     26 H5         27.3481    3.6421    7.2334 H       1  <0>         0.0238
     27 H6         25.7066    4.3648    7.1335 H       1  <0>         0.0238
     28 H7         26.5510   -1.5551    2.9855 H       1  <0>         0.0269
     29 H8         26.5752   -1.7326    4.7499 H       1  <0>         0.0269
     30 H9         28.5677   -2.9445    4.5867 H       1  <0>         0.0290
     31 H10        28.5752   -2.7131    2.8194 H       1  <0>         0.0290
     32 H11        24.7784    0.1730    3.9314 H       1  <0>         0.0271
     33 H12        25.4452    1.4245    2.8279 H       1  <0>         0.0271
     34 H13        25.9626    6.3217    6.1003 H       1  <0>         0.0293
     35 H14        26.6665    7.1394    4.6549 H       1  <0>         0.0293
     36 H15        28.6559    2.3659    6.3861 H       1  <0>         0.0268
     37 H16        29.2467    3.4818    5.1052 H       1  <0>         0.0268
     38 H17        23.4567    2.3110    3.9265 H       1  <0>         0.0310
     39 H18        24.1222    1.8745    5.5506 H       1  <0>         0.0310
     40 H19        27.3742    4.9772    3.7367 H       1  <0>         0.0275
     41 H20        28.0259    5.1866    5.4124 H       1  <0>         0.0275
     42 H21        29.8752    1.6109    3.6748 H       1  <0>         0.0271
     43 H22        30.5915    1.3439    5.3137 H       1  <0>         0.0271
     44 H23        23.3458    4.5589    3.8281 H       1  <0>         0.0597
     45 H24        24.7372    7.1214    4.0981 H       1  <0>         0.0638
     46 H25        26.3729    0.7819    5.6544 H       1  <0>         0.0307
     47 H26        27.7054    0.5067    3.0197 H       1  <0>         0.0310
     48 H27        27.4813    2.6423    3.5386 H       1  <0>         0.0312
     49 H28        29.9866   -0.7581    2.9599 H       1  <0>         0.0599
     50 H29        23.4244    6.7257    3.3175 H       1  <0>         0.2102
     51 H30        31.3827   -1.0019    4.8246 H       1  <0>         0.2098
@<TRIPOS>BOND
     1     1    18    1
     2     2    19    1
     3     3     4    1
     4     3    14    1
     5     4    16    1
     6     5     8    1
     7     5    13    1
     8     6     9    1
     9     6    12    1
    10     7    10    1
    11     7    15    1
    12     8    17    1
    13     9    19    1
    14    10    18    1
    15    11    12    1
    16    11    17    2
    17    12    20    1
    18    13    14    1
    19    13    15    1
    20    14    18    1
    21    15    19    1
    22    16    18    1
    23    16    21    1
    24    17    19    1
    25     1    22    1
    26     1    23    1
    27     1    24    1
    28     2    25    1
    29     2    26    1
    30     2    27    1
    31     3    28    1
    32     3    29    1
    33     4    30    1
    34     4    31    1
    35     5    32    1
    36     5    33    1
    37     6    34    1
    38     6    35    1
    39     7    36    1
    40     7    37    1
    41     8    38    1
    42     8    39    1
    43     9    40    1
    44     9    41    1
    45    10    42    1
    46    10    43    1
    47    11    44    1
    48    12    45    1
    49    13    46    1
    50    14    47    1
    51    15    48    1
    52    16    49    1
    53    20    50    1
    54    21    51    1
@<TRIPOS>SUBSTRUCTURE
     1 <0>         1 TEMP              0 ****  ****    0 ROOT

