
##########                                Name:      TES_A1000_2AM9
##########                    Molecular_Weight:             290.446
##########                DOCK_Rotatable_Bonds:                   2
##########                       Formal_Charge:        -0.000199869
##########                     HBond_Acceptors:                   2
##########                        HBond_Donors:                   2
##########                         Heavy_Atoms:                  21
##########                            HA_RMSDs:               0.424
##########                            HA_RMSDh:               0.424
##########                            HA_RMSDm:               0.424
##########                          Grid_Score:          -29.945139
##########                     Grid_vdw_energy:          -29.511219
##########                      Grid_es_energy:           -0.433920
##########           Internal_energy_repulsive:           18.237062

@<TRIPOS>MOLECULE
TES_A1000_2AM9
 51 54 1 0 0
SMALL
USER_CHARGES


@<TRIPOS>ATOM
      1 C1         28.7219   -0.0517    6.1263 C.3     1  <0>        -0.0569
      2 C2         26.5989    4.1045    6.9481 C.3     1  <0>        -0.0556
      3 C3         26.4175   -1.0940    4.3848 C.3     1  <0>        -0.0470
      4 C4         27.6421   -1.9437    3.9707 C.3     1  <0>        -0.0261
      5 C5         24.6576    1.5481    4.7171 C.3     1  <0>        -0.0460
      6 C6         25.9695    6.6457    5.1066 C.3     1  <0>        -0.0224
      7 C7         28.4508    2.8431    4.9303 C.3     1  <0>        -0.0486
      8 C8         24.0128    2.6913    5.5119 C.3     1  <0>        -0.0309
      9 C9         26.7844    5.3877    4.7245 C.3     1  <0>        -0.0410
     10 C10        29.1067    1.6348    4.2218 C.3     1  <0>        -0.0447
     11 C11        23.9495    5.1402    5.0104 C.2     1  <0>        -0.0561
     12 C12        24.5087    6.4698    4.8024 C.3     1  <0>         0.0736
     13 C13        26.1792    1.4795    5.0399 C.3     1  <0>        -0.0337
     14 C14        26.9251    0.3679    4.2605 C.3     1  <0>        -0.0301
     15 C15        26.8882    2.8262    4.6985 C.3     1  <0>        -0.0288
     16 C16        28.7855   -0.9312    3.6860 C.3     1  <0>         0.0609
     17 C17        24.7023    4.0289    5.2927 C.2     1  <0>        -0.0649
     18 C18        28.4491    0.2788    4.6057 C.3     1  <0>        -0.0030
     19 C19        26.2738    4.0754    5.4265 C.3     1  <0>        -0.0078
     20 O1         23.7370    7.4575    4.3588 O.3     1  <0>        -0.3878
     21 O2         30.0724   -1.4985    4.0031 O.3     1  <0>        -0.3912
     22 H1         28.2516   -1.0123    6.3834 H       1  <0>         0.0236
     23 H2         29.8064   -0.1171    6.2983 H       1  <0>         0.0236
     24 H3         28.2979    0.7441    6.7562 H       1  <0>         0.0236
     25 H4         26.2343    3.1798    7.4192 H       1  <0>         0.0238
     26 H5         27.6870    4.1832    7.0890 H       1  <0>         0.0238
     27 H6         26.1053    4.9713    7.4118 H       1  <0>         0.0238
     28 H7         25.5579   -1.2787    3.7238 H       1  <0>         0.0269
     29 H8         26.0983   -1.3228    5.4123 H       1  <0>         0.0269
     30 H9         27.9268   -2.6343    4.7782 H       1  <0>         0.0290
     31 H10        27.4169   -2.5381    3.0730 H       1  <0>         0.0290
     32 H11        24.1818    0.5960    4.9946 H       1  <0>         0.0271
     33 H12        24.5200    1.7281    3.6408 H       1  <0>         0.0271
     34 H13        26.0872    6.8303    6.1846 H       1  <0>         0.0293
     35 H14        26.3504    7.5027    4.5317 H       1  <0>         0.0293
     36 H15        28.6581    2.7875    6.0091 H       1  <0>         0.0268
     37 H16        28.8683    3.7746    4.5204 H       1  <0>         0.0268
     38 H17        22.9644    2.7862    5.1926 H       1  <0>         0.0310
     39 H18        24.0703    2.4439    6.5822 H       1  <0>         0.0310
     40 H19        26.7082    5.2467    3.6363 H       1  <0>         0.0275
     41 H20        27.8301    5.5523    5.0234 H       1  <0>         0.0275
     42 H21        29.0054    1.7736    3.1353 H       1  <0>         0.0271
     43 H22        30.1679    1.5989    4.5095 H       1  <0>         0.0271
     44 H23        22.8783    5.0229    4.9379 H       1  <0>         0.0597
     45 H24        24.3429    7.5315    4.5674 H       1  <0>         0.0638
     46 H25        26.2269    1.2596    6.1166 H       1  <0>         0.0307
     47 H26        26.7155    0.7242    3.2412 H       1  <0>         0.0310
     48 H27        26.7011    2.9011    3.6172 H       1  <0>         0.0312
     49 H28        28.8491   -0.6453    2.6257 H       1  <0>         0.0599
     50 H29        22.8443    7.1457    4.2670 H       1  <0>         0.2102
     51 H30        30.7571   -0.8850    3.7639 H       1  <0>         0.2098
@<TRIPOS>BOND
     1     1    18    1
     2     2    19    1
     3     3     4    1
     4     3    14    1
     5     4    16    1
     6     5     8    1
     7     5    13    1
     8     6     9    1
     9     6    12    1
    10     7    10    1
    11     7    15    1
    12     8    17    1
    13     9    19    1
    14    10    18    1
    15    11    12    1
    16    11    17    2
    17    12    20    1
    18    13    14    1
    19    13    15    1
    20    14    18    1
    21    15    19    1
    22    16    18    1
    23    16    21    1
    24    17    19    1
    25     1    22    1
    26     1    23    1
    27     1    24    1
    28     2    25    1
    29     2    26    1
    30     2    27    1
    31     3    28    1
    32     3    29    1
    33     4    30    1
    34     4    31    1
    35     5    32    1
    36     5    33    1
    37     6    34    1
    38     6    35    1
    39     7    36    1
    40     7    37    1
    41     8    38    1
    42     8    39    1
    43     9    40    1
    44     9    41    1
    45    10    42    1
    46    10    43    1
    47    11    44    1
    48    12    45    1
    49    13    46    1
    50    14    47    1
    51    15    48    1
    52    16    49    1
    53    20    50    1
    54    21    51    1
@<TRIPOS>SUBSTRUCTURE
     1 <0>         1 TEMP              0 ****  ****    0 ROOT

