
##########                                Name:      TES_A1000_2AM9
##########                    Molecular_Weight:             290.446
##########                DOCK_Rotatable_Bonds:                   2
##########                       Formal_Charge:        -0.000199869
##########                     HBond_Acceptors:                   2
##########                        HBond_Donors:                   2
##########                         Heavy_Atoms:                  21
##########                            HA_RMSDs:               0.296
##########                            HA_RMSDh:               0.296
##########                            HA_RMSDm:               0.296
##########                          Grid_Score:          -37.160839
##########                     Grid_vdw_energy:          -36.983280
##########                      Grid_es_energy:           -0.177559
##########           Internal_energy_repulsive:           18.237068

@<TRIPOS>MOLECULE
TES_A1000_2AM9
 51 54 1 0 0
SMALL
USER_CHARGES


@<TRIPOS>ATOM
      1 C1         28.7227   -0.3085    6.0811 C.3     1  <0>        -0.0569
      2 C2         26.6006    3.8694    6.7875 C.3     1  <0>        -0.0556
      3 C3         26.4883   -1.3414    4.2452 C.3     1  <0>        -0.0470
      4 C4         27.7228   -2.2033    3.8898 C.3     1  <0>        -0.0261
      5 C5         24.7378    1.3168    4.4864 C.3     1  <0>        -0.0460
      6 C6         26.0740    6.4056    4.9072 C.3     1  <0>        -0.0224
      7 C7         28.5287    2.5819    4.8596 C.3     1  <0>        -0.0486
      8 C8         24.0683    2.4695    5.2462 C.3     1  <0>        -0.0309
      9 C9         26.8944    5.1389    4.5678 C.3     1  <0>        -0.0410
     10 C10        29.2050    1.3645    4.1868 C.3     1  <0>        -0.0447
     11 C11        24.0477    4.9161    4.7299 C.2     1  <0>        -0.0561
     12 C12        24.6266    6.2399    4.5400 C.3     1  <0>         0.0736
     13 C13        26.2431    1.2376    4.8761 C.3     1  <0>        -0.0337
     14 C14        27.0131    0.1156    4.1360 C.3     1  <0>        -0.0301
     15 C15        26.9777    2.5764    4.5594 C.3     1  <0>        -0.0288
     16 C16        28.8861   -1.2017    3.6504 C.3     1  <0>         0.0609
     17 C17        24.7780    3.8002    5.0507 C.2     1  <0>        -0.0649
     18 C18        28.5197    0.0160    4.5482 C.3     1  <0>        -0.0030
     19 C19        26.3425    3.8346    5.2533 C.3     1  <0>        -0.0078
     20 O1         23.8835    7.2315    4.0579 O.3     1  <0>        -0.3878
     21 O2         30.1530   -1.7778    4.0266 O.3     1  <0>        -0.3912
     22 H1         28.2335   -1.2638    6.3222 H       1  <0>         0.0236
     23 H2         29.7980   -0.3818    6.3009 H       1  <0>         0.0236
     24 H3         28.2781    0.4942    6.6877 H       1  <0>         0.0236
     25 H4         26.2079    2.9503    7.2468 H       1  <0>         0.0238
     26 H5         27.6821    3.9400    6.9757 H       1  <0>         0.0238
     27 H6         26.0945    4.7427    7.2247 H       1  <0>         0.0238
     28 H7         25.6571   -1.5227    3.5480 H       1  <0>         0.0269
     29 H8         26.1224   -1.5620    5.2589 H       1  <0>         0.0269
     30 H9         27.9659   -2.8918    4.7125 H       1  <0>         0.0290
     31 H10        27.5323   -2.8008    2.9860 H       1  <0>         0.0290
     32 H11        24.2423    0.3701    4.7475 H       1  <0>         0.0271
     33 H12        24.6491    1.4920    3.4041 H       1  <0>         0.0271
     34 H13        26.1459    6.5950    5.9884 H       1  <0>         0.0293
     35 H14        26.4870    7.2562    4.3453 H       1  <0>         0.0293
     36 H15        28.6879    2.5305    5.9468 H       1  <0>         0.0268
     37 H16        28.9716    3.5077    4.4637 H       1  <0>         0.0268
     38 H17        23.0358    2.5712    4.8806 H       1  <0>         0.0310
     39 H18        24.0767    2.2275    6.3193 H       1  <0>         0.0310
     40 H19        26.8648    4.9926    3.4780 H       1  <0>         0.0275
     41 H20        27.9273    5.2966    4.9115 H       1  <0>         0.0275
     42 H21        29.1526    1.4982    3.0961 H       1  <0>         0.0271
     43 H22        30.2521    1.3215    4.5210 H       1  <0>         0.0271
     44 H23        22.9798    4.8071    4.6110 H       1  <0>         0.0597
     45 H24        24.4802    7.3017    4.2926 H       1  <0>         0.0638
     46 H25        26.2417    1.0231    5.9550 H       1  <0>         0.0307
     47 H26        26.8515    0.4681    3.1066 H       1  <0>         0.0310
     48 H27        26.8389    2.6470    3.4705 H       1  <0>         0.0312
     49 H28        28.9985   -0.9222    2.5925 H       1  <0>         0.0599
     50 H29        22.9996    6.9192    3.9035 H       1  <0>         0.2102
     51 H30        30.8572   -1.2026    3.7514 H       1  <0>         0.2098
@<TRIPOS>BOND
     1     1    18    1
     2     2    19    1
     3     3     4    1
     4     3    14    1
     5     4    16    1
     6     5     8    1
     7     5    13    1
     8     6     9    1
     9     6    12    1
    10     7    10    1
    11     7    15    1
    12     8    17    1
    13     9    19    1
    14    10    18    1
    15    11    12    1
    16    11    17    2
    17    12    20    1
    18    13    14    1
    19    13    15    1
    20    14    18    1
    21    15    19    1
    22    16    18    1
    23    16    21    1
    24    17    19    1
    25     1    22    1
    26     1    23    1
    27     1    24    1
    28     2    25    1
    29     2    26    1
    30     2    27    1
    31     3    28    1
    32     3    29    1
    33     4    30    1
    34     4    31    1
    35     5    32    1
    36     5    33    1
    37     6    34    1
    38     6    35    1
    39     7    36    1
    40     7    37    1
    41     8    38    1
    42     8    39    1
    43     9    40    1
    44     9    41    1
    45    10    42    1
    46    10    43    1
    47    11    44    1
    48    12    45    1
    49    13    46    1
    50    14    47    1
    51    15    48    1
    52    16    49    1
    53    20    50    1
    54    21    51    1
@<TRIPOS>SUBSTRUCTURE
     1 <0>         1 TEMP              0 ****  ****    0 ROOT

