
##########                                Name:        RIT_600_3NXU
##########                    Molecular_Weight:             718.941
##########                DOCK_Rotatable_Bonds:                  23
##########                       Formal_Charge:         0.000100225
##########                     HBond_Acceptors:                  13
##########                        HBond_Donors:                   4
##########                         Heavy_Atoms:                  50
##########                            HA_RMSDs:               0.448
##########                            HA_RMSDh:               0.448
##########                            HA_RMSDm:               0.448
##########                          Grid_Score:          -69.712677
##########                     Grid_vdw_energy:          -68.246887
##########                      Grid_es_energy:           -1.465786
##########           Internal_energy_repulsive:           73.251625

@<TRIPOS>MOLECULE
RIT_600_3NXU
 96 99 1 0 0
SMALL
USER_CHARGES


@<TRIPOS>ATOM
      1 C1         36.3157   -8.4220   35.6899 C.3     1  <0>        -0.0567
      2 C2         37.7815   -9.3318   33.9095 C.3     1  <0>        -0.0567
      3 C3         37.7261  -13.5509   33.1431 C.3     1  <0>        -0.0605
      4 C4         38.9910  -15.0254   31.3163 C.3     1  <0>        -0.0605
      5 C5         32.7195  -10.8843   30.6478 C.3     1  <0>         0.0050
      6 C6         41.9303  -21.0361   29.8199 C.ar    1  <0>        -0.0617
      7 C7         31.8985  -15.8478   28.7225 C.ar    1  <0>        -0.0617
      8 C8         40.9342  -20.1412   30.4485 C.ar    1  <0>        -0.0615
      9 C9         42.7303  -20.5753   28.6154 C.ar    1  <0>        -0.0615
     10 C10        32.3596  -14.5024   28.2543 C.ar    1  <0>        -0.0615
     11 C11        32.6064  -17.0950   28.3081 C.ar    1  <0>        -0.0615
     12 C12        40.7434  -18.7808   29.8721 C.ar    1  <0>        -0.0585
     13 C13        42.5448  -19.2323   28.0359 C.ar    1  <0>        -0.0585
     14 C14        33.5830  -14.3589   27.3600 C.ar    1  <0>        -0.0582
     15 C15        33.8012  -16.9724   27.4256 C.ar    1  <0>        -0.0582
     16 C16        35.5403  -21.1421   25.0686 C.2     1  <0>         0.0401
     17 C17        34.3289  -12.9706   34.8391 C.2     1  <0>         0.0002
     18 C18        33.7885  -20.8266   26.4807 C.2     1  <0>         0.0650
     19 C19        41.2882  -16.9908   28.1439 C.3     1  <0>        -0.0064
     20 C20        35.4919  -15.5665   26.1872 C.3     1  <0>         0.0105
     21 C21        33.0696  -12.4982   32.7056 C.3     1  <0>         0.0585
     22 C22        37.4054  -20.9535   26.4844 C.3     1  <0>         0.0912
     23 C23        37.9239  -15.9062   26.7287 C.2     1  <0>        -0.0367
     24 C24        41.5697  -18.3381   28.6422 C.ar    1  <0>        -0.0455
     25 C25        34.2791  -15.5736   26.9638 C.ar    1  <0>        -0.0419
     26 C26        36.2229  -21.0204   26.0735 C.2     1  <0>         0.0354
     27 C27        34.0803  -12.1692   33.7915 C.2     1  <0>         0.0660
     28 C28        35.6077  -10.6440   34.5380 C.2     1  <0>         0.0812
     29 C29        36.3615   -9.2279   34.4290 C.3     1  <0>         0.0021
     30 C30        37.8249  -13.9666   31.6202 C.3     1  <0>        -0.0197
     31 C31        39.8396  -16.9915   27.5077 C.3     1  <0>         0.0587
     32 C32        39.2635  -15.5981   27.4335 C.3     1  <0>         0.0937
     33 C33        36.5299  -13.8540   30.5513 C.3     1  <0>         0.1034
     34 C34        36.7645  -15.5470   27.2585 C.2     1  <0>         0.0134
     35 C35        36.2735  -14.9831   29.7312 C.2     1  <0>         0.2376
     36 C36        34.7148  -12.4362   30.6807 C.2     1  <0>         0.3029
     37 C37        38.7107  -19.1023   26.6868 C.2     1  <0>         0.3529
     38 N1         34.2283  -21.0548   25.2626 N.2     1  <0>        -0.2554
     39 N2         34.7580  -11.0287   33.6999 N.2     1  <0>        -0.2471
     40 N3         39.4655  -17.9849   26.3194 N.am    1  <0>        -0.2854
     41 N4         35.5571  -13.4971   31.3494 N.am    1  <0>        -0.2877
     42 N5         36.8947  -14.7423   28.5138 N.am    1  <0>        -0.2875
     43 N6         33.5356  -11.9331   31.3256 N.am    1  <0>        -0.2829
     44 O1         40.1439  -14.8672   26.3718 O.3     1  <0>        -0.3859
     45 O2         35.4555  -15.8484   29.9226 O.2     1  <0>        -0.2734
     46 O3         35.0815  -11.9713   29.4462 O.2     1  <0>        -0.2526
     47 O4         38.3870  -19.2870   28.0666 O.2     1  <0>        -0.2413
     48 O5         38.0862  -19.8498   25.8033 O.3     1  <0>        -0.2946
     49 S1         35.5853  -11.9817   35.6643 S.3     1  <0>        -0.0800
     50 S2         35.1384  -20.7214   27.3247 S.3     1  <0>        -0.0781
     51 H1         35.2776   -8.3598   36.0483 H       1  <0>         0.0236
     52 H2         36.9398   -8.9049   36.4563 H       1  <0>         0.0236
     53 H3         36.6963   -7.4092   35.4916 H       1  <0>         0.0236
     54 H4         37.7914   -9.9269   32.9844 H       1  <0>         0.0236
     55 H5         38.1702   -8.3241   33.7011 H       1  <0>         0.0236
     56 H6         38.4138   -9.8198   34.6659 H       1  <0>         0.0236
     57 H7         36.9085  -12.8266   33.2736 H       1  <0>         0.0233
     58 H8         37.5262  -14.4433   33.7544 H       1  <0>         0.0233
     59 H9         38.6749  -13.0938   33.4604 H       1  <0>         0.0233
     60 H10        38.9984  -15.2654   30.2428 H       1  <0>         0.0233
     61 H11        39.9616  -14.5936   31.6020 H       1  <0>         0.0233
     62 H12        38.8129  -15.9431   31.8960 H       1  <0>         0.0233
     63 H13        33.1948  -10.6077   29.6952 H       1  <0>         0.0429
     64 H14        31.7094  -11.2744   30.4537 H       1  <0>         0.0429
     65 H15        32.6521   -9.9974   31.2949 H       1  <0>         0.0429
     66 H16        42.0896  -22.0260   30.2215 H       1  <0>         0.0618
     67 H17        31.0382  -15.9171   29.3718 H       1  <0>         0.0618
     68 H18        40.3599  -20.4658   31.3037 H       1  <0>         0.0618
     69 H19        43.4516  -21.2462   28.1728 H       1  <0>         0.0618
     70 H20        31.8155  -13.6196   28.5558 H       1  <0>         0.0618
     71 H21        32.2611  -18.0631   28.6399 H       1  <0>         0.0618
     72 H22        40.0274  -18.1033   30.3134 H       1  <0>         0.0620
     73 H23        43.1213  -18.9183   27.1783 H       1  <0>         0.0620
     74 H24        33.9229  -13.3881   27.0306 H       1  <0>         0.0620
     75 H25        34.3327  -17.8575   27.1088 H       1  <0>         0.0620
     76 H26        35.9714  -21.3086   24.0925 H       1  <0>         0.0838
     77 H27        33.9017  -13.9257   35.1071 H       1  <0>         0.0712
     78 H28        32.7687  -20.7338   26.8240 H       1  <0>         0.0907
     79 H29        41.3328  -16.2684   28.9723 H       1  <0>         0.0332
     80 H30        42.0311  -16.7105   27.3827 H       1  <0>         0.0332
     81 H31        35.5424  -16.4641   25.5533 H       1  <0>         0.0374
     82 H32        35.5247  -14.6762   25.5419 H       1  <0>         0.0374
     83 H33        32.9670  -13.5907   32.6299 H       1  <0>         0.0530
     84 H34        32.1009  -12.0486   32.9688 H       1  <0>         0.0530
     85 H35        37.4096  -20.7764   27.5700 H       1  <0>         0.0622
     86 H36        37.9257  -21.8982   26.2677 H       1  <0>         0.0622
     87 H37        37.9330  -16.4266   25.7823 H       1  <0>         0.0613
     88 H38        35.7787   -8.6805   33.6736 H       1  <0>         0.0364
     89 H39        38.1344  -12.9930   31.2125 H       1  <0>         0.0318
     90 H40        39.2701  -17.5627   28.2556 H       1  <0>         0.0531
     91 H41        39.1956  -15.0320   28.3743 H       1  <0>         0.0657
     92 H42        36.7186  -13.1363   29.7394 H       1  <0>         0.0598
     93 H43        39.7513  -17.8201   25.3753 H       1  <0>         0.1514
     94 H44        35.3955  -13.8698   32.2631 H       1  <0>         0.1510
     95 H45        37.4950  -13.9436   28.4705 H       1  <0>         0.1546
     96 H46        40.9974  -14.6779   26.7437 H       1  <0>         0.2103
@<TRIPOS>BOND
     1     1    29    1
     2     2    29    1
     3     3    30    1
     4     4    30    1
     5     5    43    1
     6     6     8   ar
     7     6     9   ar
     8     7    10   ar
     9     7    11   ar
    10     8    12   ar
    11     9    13   ar
    12    10    14   ar
    13    11    15   ar
    14    12    24   ar
    15    13    24   ar
    16    14    25   ar
    17    15    25   ar
    18    16    26    2
    19    16    38    1
    20    17    27    2
    21    17    49    1
    22    18    38    2
    23    18    50    1
    24    19    24    1
    25    19    31    1
    26    20    25    1
    27    20    34    1
    28    21    27    1
    29    21    43    1
    30    22    26    1
    31    22    48    1
    32    23    32    1
    33    23    34    2
    34    26    50    1
    35    27    39    1
    36    28    29    1
    37    28    39    2
    38    28    49    1
    39    30    33    1
    40    31    32    1
    41    31    40    1
    42    32    44    1
    43    33    35    1
    44    33    41    1
    45    34    42    1
    46    35    42   am
    47    35    45    2
    48    36    41   am
    49    36    43   am
    50    36    46    2
    51    37    40   am
    52    37    47    2
    53    37    48    1
    54     1    51    1
    55     1    52    1
    56     1    53    1
    57     2    54    1
    58     2    55    1
    59     2    56    1
    60     3    57    1
    61     3    58    1
    62     3    59    1
    63     4    60    1
    64     4    61    1
    65     4    62    1
    66     5    63    1
    67     5    64    1
    68     5    65    1
    69     6    66    1
    70     7    67    1
    71     8    68    1
    72     9    69    1
    73    10    70    1
    74    11    71    1
    75    12    72    1
    76    13    73    1
    77    14    74    1
    78    15    75    1
    79    16    76    1
    80    17    77    1
    81    18    78    1
    82    19    79    1
    83    19    80    1
    84    20    81    1
    85    20    82    1
    86    21    83    1
    87    21    84    1
    88    22    85    1
    89    22    86    1
    90    23    87    1
    91    29    88    1
    92    30    89    1
    93    31    90    1
    94    32    91    1
    95    33    92    1
    96    40    93    1
    97    41    94    1
    98    42    95    1
    99    44    96    1
@<TRIPOS>SUBSTRUCTURE
     1 <0>         1 TEMP              0 ****  ****    0 ROOT

