
##########                                Name:        CIW_221_3NF7
##########                    Molecular_Weight:             344.731
##########                DOCK_Rotatable_Bonds:                   3
##########                       Formal_Charge:             -0.9996
##########                     HBond_Acceptors:                   7
##########                        HBond_Donors:                   0
##########                         Heavy_Atoms:                  24
##########                            HA_RMSDs:               0.416
##########                            HA_RMSDh:               0.416
##########                            HA_RMSDm:               0.416
##########                          Grid_Score:           10.704428
##########                     Grid_vdw_energy:          -26.236338
##########                      Grid_es_energy:           36.940765
##########           Internal_energy_repulsive:           15.185247

@<TRIPOS>MOLECULE
CIW_221_3NF7
 35 38 1 0 0
SMALL
USER_CHARGES


@<TRIPOS>ATOM
      1 C1          7.1868  -29.2668   -9.4013 C.ar    1  <0>        -0.0416
      2 C2         10.8477  -26.7315   -9.4401 C.ar    1  <0>        -0.0538
      3 C3          8.0722  -28.3567   -9.9341 C.ar    1  <0>        -0.0386
      4 C4         12.0569  -27.1717   -8.9466 C.ar    1  <0>        -0.0287
      5 C5          5.7938  -27.5265   -8.4877 C.ar    1  <0>        -0.0380
      6 C6          6.6144  -25.1393   -8.9645 C.3     1  <0>         0.0514
      7 C7         14.9706  -27.7777  -10.9259 C.3     1  <0>         0.1601
      8 C8          9.3531  -26.0264  -11.2667 C.3     1  <0>         0.0455
      9 C9          6.0803  -28.8594   -8.6976 C.ar    1  <0>         0.0414
     10 C10        10.6904  -26.4680  -10.8014 C.ar    1  <0>        -0.0182
     11 C11         7.7721  -27.0385   -9.7075 C.ar    1  <0>         0.0403
     12 C12        13.0882  -27.3150   -9.8512 C.ar    1  <0>         0.1097
     13 C13         6.6745  -26.6107   -9.0122 C.ar    1  <0>        -0.0158
     14 C14        11.7319  -26.6157  -11.7077 C.ar    1  <0>         0.0346
     15 C15        12.9159  -27.0426  -11.1774 C.ar    1  <0>         0.1181
     16 C16         7.8709  -24.7738   -9.7075 C.2     1  <0>         0.2245
     17 C17        11.6741  -26.3704  -13.1917 C.2     1  <0>         0.0745
     18 N1          8.4851  -25.9462  -10.1353 N.am    1  <0>        -0.2665
     19 O1         11.0529  -27.1347  -13.9648 O.co2   1  <0>        -0.5445
     20 O2          8.2922  -23.6367   -9.8323 O.2     1  <0>        -0.2749
     21 O3         12.3186  -25.3852  -13.6105 O.co2   1  <0>        -0.5445
     22 O4         14.3920  -27.7460   -9.5964 O.3     1  <0>        -0.3150
     23 O5         14.0546  -27.2746  -11.9011 O.3     1  <0>        -0.3144
     24 Cl1         5.0354  -30.0424   -8.0349 Cl      1  <0>        -0.0835
     25 H1          7.3664  -30.3227   -9.5397 H       1  <0>         0.0633
     26 H2         10.0148  -26.5892   -8.7676 H       1  <0>         0.0622
     27 H3          8.9446  -28.6611  -10.4931 H       1  <0>         0.0637
     28 H4         12.1909  -27.3945   -7.8984 H       1  <0>         0.0644
     29 H5          4.9180  -27.2168   -7.9368 H       1  <0>         0.0635
     30 H6          5.7108  -24.7413   -9.4492 H       1  <0>         0.0408
     31 H7          6.6103  -24.7538   -7.9342 H       1  <0>         0.0408
     32 H8         15.8775  -27.1552  -10.9345 H       1  <0>         0.0880
     33 H9         15.2247  -28.8176  -11.1790 H       1  <0>         0.0880
     34 H10         9.4323  -25.0398  -11.7467 H       1  <0>         0.0518
     35 H11         8.9534  -26.7495  -11.9930 H       1  <0>         0.0518
@<TRIPOS>BOND
     1     1     3   ar
     2     1     9   ar
     3     2     4   ar
     4     2    10   ar
     5     3    11   ar
     6     4    12   ar
     7     5     9   ar
     8     5    13   ar
     9     6    13    1
    10     6    16    1
    11     7    22    1
    12     7    23    1
    13     8    10    1
    14     8    18    1
    15     9    24    1
    16    10    14   ar
    17    11    13   ar
    18    11    18    1
    19    12    15   ar
    20    12    22    1
    21    14    15   ar
    22    14    17    1
    23    15    23    1
    24    16    18   am
    25    16    20    2
    26    17    19    1
    27    17    21    2
    28     1    25    1
    29     2    26    1
    30     3    27    1
    31     4    28    1
    32     5    29    1
    33     6    30    1
    34     6    31    1
    35     7    32    1
    36     7    33    1
    37     8    34    1
    38     8    35    1
@<TRIPOS>SUBSTRUCTURE
     1 <0>         1 TEMP              0 ****  ****    0 ROOT

