
##########                                Name:        LGF_361_2QD9
##########                    Molecular_Weight:             550.522
##########                DOCK_Rotatable_Bonds:                   8
##########                       Formal_Charge:        -0.000100166
##########                     HBond_Acceptors:                  13
##########                        HBond_Donors:                   2
##########                         Heavy_Atoms:                  40
##########                            HA_RMSDs:               0.728
##########                            HA_RMSDh:               0.728
##########                            HA_RMSDm:               0.691
##########                          Grid_Score:          -71.239479
##########                     Grid_vdw_energy:          -70.327141
##########                      Grid_es_energy:           -0.912339
##########           Internal_energy_repulsive:           15.936109

@<TRIPOS>MOLECULE
LGF_361_2QD9
 64 69 1 0 0
SMALL
USER_CHARGES


@<TRIPOS>ATOM
      1 C1          2.4883    0.2923   23.5461 C.3     1  <0>         0.0447
      2 C2         -4.4284    1.5478   16.0501 C.ar    1  <0>        -0.0256
      3 C3         -3.6945    1.9383   17.1276 C.ar    1  <0>        -0.0458
      4 C4         -6.1390    0.3661   17.2726 C.ar    1  <0>         0.0095
      5 C5         -1.5873   -1.3787   25.7404 C.ar    1  <0>        -0.0344
      6 C6         -0.5605   -0.0123   28.9829 C.2     1  <0>         0.0068
      7 C7         -2.2885    2.6317   21.2982 C.2     1  <0>         0.0485
      8 C8         -4.6913   -3.1901   32.7493 C.3     1  <0>        -0.0095
      9 C9         -3.2393   -0.7315   20.3674 C.3     1  <0>         0.0342
     10 C10        -4.6894   -1.8054   32.0548 C.3     1  <0>         0.0176
     11 C11        -1.9988   -1.4490   20.9509 C.3     1  <0>         0.0315
     12 C12        -1.6138    0.5595   22.5173 C.3     1  <0>         0.0548
     13 C13        -2.5591   -2.8895   31.6936 C.3     1  <0>         0.0411
     14 C14        -5.6158    0.7685   16.1275 C.ar    1  <0>         0.1262
     15 C15        -4.2071    1.4602   18.3965 C.ar    1  <0>         0.0505
     16 C16        -0.9702   -0.7772   26.9123 C.ar    1  <0>         0.0281
     17 C17        -0.8112   -1.2681   24.6447 C.ar    1  <0>         0.0867
     18 C18        -5.3940    0.7791   18.4200 C.ar    1  <0>         0.1365
     19 C19        -1.4792   -0.7192   28.3024 C.2     1  <0>         0.0511
     20 C20        -2.3056    1.3083   21.4667 C.2     1  <0>         0.0477
     21 C21         0.1644   -0.1401   26.8435 C.ar    1  <0>         0.1333
     22 C22         0.5127   -0.5057   24.6882 C.ar    1  <0>         0.1818
     23 C23        -3.4887    1.7514   19.6856 C.2     1  <0>         0.1354
     24 C24        -3.6629   -3.9260   31.9052 C.3     1  <0>         0.0724
     25 C25        -1.3444   -1.8549   23.3164 C.2     1  <0>         0.2511
     26 C26        -2.7217   -1.3223   28.8711 C.2     1  <0>         0.2493
     27 C27        -3.1839   -0.9134   30.2671 C.2     1  <0>         0.2871
     28 N1          0.4491    0.3310   28.0821 N.pl3   1  <0>        -0.3045
     29 N2         -3.0325    2.8817   20.1006 N.2     1  <0>        -0.2377
     30 N3          0.9375   -0.0104   25.7501 N.ar    1  <0>        -0.2072
     31 N4         -3.0137    0.7224   20.5216 N.pl3   1  <0>        -0.2839
     32 N5         -1.7738   -0.8610   22.3033 N.am    1  <0>        -0.2903
     33 N6         -3.4435   -1.8330   31.2825 N.am    1  <0>        -0.2923
     34 O1         -4.1775   -4.4124   30.6671 O.3     1  <0>        -0.3902
     35 O2         -1.3887   -3.0152   23.0090 O.2     1  <0>        -0.2698
     36 O3         -3.3623   -2.1861   28.2485 O.2     1  <0>        -0.2817
     37 O4         -3.2997    0.2836   30.5595 O.2     1  <0>        -0.2664
     38 O5          1.1955   -0.4012   23.5246 O.3     1  <0>        -0.3309
     39 F1         -6.1711    0.2845   15.0422 F       1  <0>        -0.2054
     40 F2         -5.8726    0.2961   19.6076 F       1  <0>        -0.2047
     41 H1          2.9196    0.2966   22.5342 H       1  <0>         0.0529
     42 H2          2.3430    1.3281   23.8870 H       1  <0>         0.0529
     43 H3          3.1718   -0.2276   24.2336 H       1  <0>         0.0529
     44 H4         -4.0866    1.8497   15.0712 H       1  <0>         0.0646
     45 H5         -2.8085    2.5504   17.0447 H       1  <0>         0.0626
     46 H6         -7.0442   -0.2195   17.3352 H       1  <0>         0.0675
     47 H7         -2.5550   -1.8581   25.7479 H       1  <0>         0.0633
     48 H8         -0.5967    0.2428   30.0317 H       1  <0>         0.0789
     49 H9         -1.8119    3.3633   21.9338 H       1  <0>         0.0846
     50 H10        -4.4031   -3.1311   33.8092 H       1  <0>         0.0306
     51 H11        -5.6796   -3.6726   32.7261 H       1  <0>         0.0306
     52 H12        -3.3627   -0.9873   19.3046 H       1  <0>         0.0484
     53 H13        -4.1462   -1.0361   20.9104 H       1  <0>         0.0484
     54 H14        -5.5685   -1.6725   31.4070 H       1  <0>         0.0465
     55 H15        -4.6991   -0.9826   32.7848 H       1  <0>         0.0465
     56 H16        -2.1783   -2.5316   21.0254 H       1  <0>         0.0480
     57 H17        -1.1209   -1.2866   20.3082 H       1  <0>         0.0480
     58 H18        -0.5432    0.8110   22.4970 H       1  <0>         0.0527
     59 H19        -2.0394    0.8291   23.4951 H       1  <0>         0.0527
     60 H20        -1.9670   -2.6641   32.5929 H       1  <0>         0.0490
     61 H21        -1.8066   -3.1720   30.9426 H       1  <0>         0.0490
     62 H22        -3.3121   -4.8396   32.4076 H       1  <0>         0.0609
     63 H23         1.2691    0.8523   28.3180 H       1  <0>         0.1530
     64 H24        -3.5357   -4.9813   30.2585 H       1  <0>         0.2098
@<TRIPOS>BOND
     1     1    38    1
     2     2     3   ar
     3     2    14   ar
     4     3    15   ar
     5     4    14   ar
     6     4    18   ar
     7     5    16   ar
     8     5    17   ar
     9     6    19    2
    10     6    28    1
    11     7    20    2
    12     7    29    1
    13     8    10    1
    14     8    24    1
    15     9    11    1
    16     9    31    1
    17    10    33    1
    18    11    32    1
    19    12    20    1
    20    12    32    1
    21    13    24    1
    22    13    33    1
    23    14    39    1
    24    15    18   ar
    25    15    23    1
    26    16    19    1
    27    16    21   ar
    28    17    22   ar
    29    17    25    1
    30    18    40    1
    31    19    26    1
    32    20    31    1
    33    21    28    1
    34    21    30   ar
    35    22    30   ar
    36    22    38    1
    37    23    29    2
    38    23    31    1
    39    24    34    1
    40    25    32   am
    41    25    35    2
    42    26    27    1
    43    26    36    2
    44    27    33   am
    45    27    37    2
    46     1    41    1
    47     1    42    1
    48     1    43    1
    49     2    44    1
    50     3    45    1
    51     4    46    1
    52     5    47    1
    53     6    48    1
    54     7    49    1
    55     8    50    1
    56     8    51    1
    57     9    52    1
    58     9    53    1
    59    10    54    1
    60    10    55    1
    61    11    56    1
    62    11    57    1
    63    12    58    1
    64    12    59    1
    65    13    60    1
    66    13    61    1
    67    24    62    1
    68    28    63    1
    69    34    64    1
@<TRIPOS>SUBSTRUCTURE
     1 <0>         1 TEMP              0 ****  ****    0 ROOT

