
##########                                Name:        LGF_361_2QD9
##########                    Molecular_Weight:             550.522
##########                DOCK_Rotatable_Bonds:                   8
##########                       Formal_Charge:        -0.000100166
##########                     HBond_Acceptors:                  13
##########                        HBond_Donors:                   2
##########                         Heavy_Atoms:                  40
##########                            HA_RMSDs:               0.460
##########                            HA_RMSDh:               0.460
##########                            HA_RMSDm:               0.458
##########                          Grid_Score:          -68.963402
##########                     Grid_vdw_energy:          -67.918549
##########                      Grid_es_energy:           -1.044856
##########           Internal_energy_repulsive:           17.099665

@<TRIPOS>MOLECULE
LGF_361_2QD9
 64 69 1 0 0
SMALL
USER_CHARGES


@<TRIPOS>ATOM
      1 C1          2.5492   -0.0716   23.8530 C.3     1  <0>         0.0447
      2 C2         -4.0628    1.8610   15.9895 C.ar    1  <0>        -0.0256
      3 C3         -3.4257    2.1976   17.1440 C.ar    1  <0>        -0.0458
      4 C4         -5.6832    0.3693   16.9722 C.ar    1  <0>         0.0095
      5 C5         -1.7551   -1.7157   25.5813 C.ar    1  <0>        -0.0344
      6 C6         -0.9879   -0.5530   28.9716 C.2     1  <0>         0.0068
      7 C7         -2.2492    2.5210   21.4223 C.2     1  <0>         0.0485
      8 C8         -5.2150   -4.1785   32.1230 C.3     1  <0>        -0.0095
      9 C9         -3.0356   -0.7860   20.1867 C.3     1  <0>         0.0342
     10 C10        -5.1978   -2.7073   31.6384 C.3     1  <0>         0.0176
     11 C11        -1.8150   -1.5137   20.7988 C.3     1  <0>         0.0315
     12 C12        -1.5939    0.3811   22.5299 C.3     1  <0>         0.0548
     13 C13        -3.0633   -3.7368   31.1605 C.3     1  <0>         0.0411
     14 C14        -5.1579    0.9566   15.9111 C.ar    1  <0>         0.1262
     15 C15        -3.9376    1.5219   18.3200 C.ar    1  <0>         0.0505
     16 C16        -1.2295   -1.1973   26.8346 C.ar    1  <0>         0.0281
     17 C17        -0.8779   -1.5797   24.5678 C.ar    1  <0>         0.0867
     18 C18        -5.0408    0.7210   18.1992 C.ar    1  <0>         0.1365
     19 C19        -1.8626   -1.1898   28.1740 C.2     1  <0>         0.0511
     20 C20        -2.2376    1.1887   21.4924 C.2     1  <0>         0.0477
     21 C21        -0.0730   -0.6006   26.9029 C.ar    1  <0>         0.1333
     22 C22         0.4606   -0.8707   24.7715 C.ar    1  <0>         0.1818
     23 C23        -3.3141    1.7339   19.6725 C.2     1  <0>         0.1354
     24 C24        -4.1729   -4.7880   31.1989 C.3     1  <0>         0.0724
     25 C25        -1.3051   -2.0788   23.1672 C.2     1  <0>         0.2511
     26 C26        -3.1715   -1.7735   28.5948 C.2     1  <0>         0.2493
     27 C27        -3.6582   -1.5707   30.0272 C.2     1  <0>         0.2871
     28 N1          0.1113   -0.2033   28.1855 N.pl3   1  <0>        -0.3045
     29 N2         -2.9202    2.8411   20.1986 N.2     1  <0>        -0.2377
     30 N3          0.8016   -0.4456   25.8925 N.ar    1  <0>        -0.2072
     31 N4         -2.8643    0.6575   20.4614 N.pl3   1  <0>        -0.2839
     32 N5         -1.6968   -1.0230   22.2026 N.am    1  <0>        -0.2903
     33 N6         -3.9381   -2.6275   30.8926 N.am    1  <0>        -0.2923
     34 O1         -4.6658   -5.0860   29.8940 O.3     1  <0>        -0.3902
     35 O2         -1.2943   -3.2135   22.7739 O.2     1  <0>        -0.2698
     36 O3         -3.8513   -2.4612   27.8145 O.2     1  <0>        -0.2817
     37 O4         -3.7770   -0.4287   30.4893 O.2     1  <0>        -0.2664
     38 O5          1.2511   -0.7339   23.6818 O.3     1  <0>        -0.3309
     39 F1         -5.6068    0.5477   14.7485 F       1  <0>        -0.2054
     40 F2         -5.5147    0.0537   19.2961 F       1  <0>        -0.2047
     41 H1          3.0731   -0.0354   22.8865 H       1  <0>         0.0529
     42 H2          2.3922    0.9522   24.2234 H       1  <0>         0.0529
     43 H3          3.1554   -0.6350   24.5776 H       1  <0>         0.0529
     44 H4         -3.7137    2.3104   15.0716 H       1  <0>         0.0646
     45 H5         -2.6108    2.9055   17.1809 H       1  <0>         0.0626
     46 H6         -6.5191   -0.3122   16.9171 H       1  <0>         0.0675
     47 H7         -2.7346   -2.1581   25.4755 H       1  <0>         0.0633
     48 H8         -1.1125   -0.3496   30.0249 H       1  <0>         0.0789
     49 H9         -1.8374    3.2149   22.1403 H       1  <0>         0.0846
     50 H10        -4.9461   -4.2763   33.1851 H       1  <0>         0.0306
     51 H11        -6.2037   -4.6479   32.0121 H       1  <0>         0.0306
     52 H12        -3.0814   -0.9647   19.1022 H       1  <0>         0.0484
     53 H13        -3.9665   -1.1530   20.6436 H       1  <0>         0.0484
     54 H14        -6.0647   -2.4771   31.0015 H       1  <0>         0.0465
     55 H15        -5.2191   -1.9999   32.4805 H       1  <0>         0.0465
     56 H16        -1.9664   -2.6031   20.7820 H       1  <0>         0.0480
     57 H17        -0.9021   -1.2818   20.2305 H       1  <0>         0.0480
     58 H18        -0.5323    0.6602   22.6004 H       1  <0>         0.0527
     59 H19        -2.0906    0.5662   23.4938 H       1  <0>         0.0527
     60 H20        -2.4873   -3.6478   32.0935 H       1  <0>         0.0490
     61 H21        -2.2979   -3.9100   30.3898 H       1  <0>         0.0490
     62 H22        -3.8331   -5.7668   31.5685 H       1  <0>         0.0609
     63 H23         0.9227    0.2744   28.5222 H       1  <0>         0.1530
     64 H24        -3.9953   -4.8915   29.2497 H       1  <0>         0.2098
@<TRIPOS>BOND
     1     1    38    1
     2     2     3   ar
     3     2    14   ar
     4     3    15   ar
     5     4    14   ar
     6     4    18   ar
     7     5    16   ar
     8     5    17   ar
     9     6    19    2
    10     6    28    1
    11     7    20    2
    12     7    29    1
    13     8    10    1
    14     8    24    1
    15     9    11    1
    16     9    31    1
    17    10    33    1
    18    11    32    1
    19    12    20    1
    20    12    32    1
    21    13    24    1
    22    13    33    1
    23    14    39    1
    24    15    18   ar
    25    15    23    1
    26    16    19    1
    27    16    21   ar
    28    17    22   ar
    29    17    25    1
    30    18    40    1
    31    19    26    1
    32    20    31    1
    33    21    28    1
    34    21    30   ar
    35    22    30   ar
    36    22    38    1
    37    23    29    2
    38    23    31    1
    39    24    34    1
    40    25    32   am
    41    25    35    2
    42    26    27    1
    43    26    36    2
    44    27    33   am
    45    27    37    2
    46     1    41    1
    47     1    42    1
    48     1    43    1
    49     2    44    1
    50     3    45    1
    51     4    46    1
    52     5    47    1
    53     6    48    1
    54     7    49    1
    55     8    50    1
    56     8    51    1
    57     9    52    1
    58     9    53    1
    59    10    54    1
    60    10    55    1
    61    11    56    1
    62    11    57    1
    63    12    58    1
    64    12    59    1
    65    13    60    1
    66    13    61    1
    67    24    62    1
    68    28    63    1
    69    34    64    1
@<TRIPOS>SUBSTRUCTURE
     1 <0>         1 TEMP              0 ****  ****    0 ROOT

