
##########                                Name:        LGF_361_2QD9
##########                    Molecular_Weight:             550.522
##########                DOCK_Rotatable_Bonds:                   8
##########                       Formal_Charge:        -0.000100166
##########                     HBond_Acceptors:                  13
##########                        HBond_Donors:                   2
##########                         Heavy_Atoms:                  40
##########                            HA_RMSDs:               0.437
##########                            HA_RMSDh:               0.437
##########                            HA_RMSDm:               0.437
##########                          Grid_Score:          -71.342621
##########                     Grid_vdw_energy:          -70.741852
##########                      Grid_es_energy:           -0.600772
##########           Internal_energy_repulsive:           21.187710

@<TRIPOS>MOLECULE
LGF_361_2QD9
 64 69 1 0 0
SMALL
USER_CHARGES


@<TRIPOS>ATOM
      1 C1          2.5284   -0.1070   23.8667 C.3     1  <0>         0.0447
      2 C2         -4.1098    1.3771   16.0330 C.ar    1  <0>        -0.0256
      3 C3         -3.4365    1.7372   17.1595 C.ar    1  <0>        -0.0458
      4 C4         -5.9819    0.3272   17.1327 C.ar    1  <0>         0.0095
      5 C5         -1.6957   -1.7460   25.7390 C.ar    1  <0>        -0.0344
      6 C6         -0.9064   -0.4858   29.0892 C.2     1  <0>         0.0068
      7 C7         -2.3693    2.4397   21.4393 C.2     1  <0>         0.0485
      8 C8         -6.0607   -3.8402   31.8387 C.3     1  <0>        -0.0095
      9 C9         -3.1036   -0.9183   20.3142 C.3     1  <0>         0.0342
     10 C10        -5.2137   -2.5444   31.7813 C.3     1  <0>         0.0176
     11 C11        -1.8612   -1.6027   20.9324 C.3     1  <0>         0.0315
     12 C12        -1.6576    0.3479   22.6026 C.3     1  <0>         0.0548
     13 C13        -4.0212   -4.3346   30.6780 C.3     1  <0>         0.0411
     14 C14        -5.3478    0.6767   16.0270 C.ar    1  <0>         0.1262
     15 C15        -4.0745    1.3133   18.3902 C.ar    1  <0>         0.0505
     16 C16        -1.1717   -1.1688   26.9671 C.ar    1  <0>         0.0281
     17 C17        -0.8776   -1.5354   24.6895 C.ar    1  <0>         0.0867
     18 C18        -5.3015    0.7101   18.3295 C.ar    1  <0>         0.1365
     19 C19        -1.7476   -1.2105   28.3315 C.2     1  <0>         0.0511
     20 C20        -2.3300    1.1106   21.5494 C.2     1  <0>         0.0477
     21 C21        -0.0761   -0.4635   26.9846 C.ar    1  <0>         0.1333
     22 C22         0.3938   -0.6996   24.8344 C.ar    1  <0>         0.1818
     23 C23        -3.4392    1.5787   19.7277 C.2     1  <0>         0.1354
     24 C24        -5.5301   -4.5737   30.6172 C.3     1  <0>         0.0724
     25 C25        -1.3115   -2.0852   23.3102 C.2     1  <0>         0.2511
     26 C26        -2.9760   -1.9132   28.8088 C.2     1  <0>         0.2493
     27 C27        -3.2820   -1.9589   30.3034 C.2     1  <0>         0.2871
     28 N1          0.1212   -0.0392   28.2567 N.pl3   1  <0>        -0.3045
     29 N2         -3.0615    2.7090   20.2151 N.2     1  <0>        -0.2377
     30 N3          0.7377   -0.2341   25.9383 N.ar    1  <0>        -0.2072
     31 N4         -2.9583    0.5360   20.5430 N.pl3   1  <0>        -0.2839
     32 N5         -1.7361   -1.0673   22.3192 N.am    1  <0>        -0.2903
     33 N6         -4.1179   -2.9143   30.8802 N.am    1  <0>        -0.2923
     34 O1         -6.0894   -4.1195   29.3862 O.3     1  <0>        -0.3902
     35 O2         -1.2825   -3.2310   22.9511 O.2     1  <0>        -0.2698
     36 O3         -3.7307   -2.5022   28.0165 O.2     1  <0>        -0.2817
     37 O4         -2.7440   -1.1542   31.0747 O.2     1  <0>        -0.2664
     38 O5          1.1225   -0.4970   23.7123 O.3     1  <0>        -0.3309
     39 F1         -5.8487    0.2118   14.9075 F       1  <0>        -0.2054
     40 F2         -5.8998    0.2778   19.4820 F       1  <0>        -0.2047
     41 H1          2.9853    0.0201   22.8742 H       1  <0>         0.0529
     42 H2          2.5870    0.8412   24.4213 H       1  <0>         0.0529
     43 H3          3.0673   -0.8898   24.4207 H       1  <0>         0.0529
     44 H4         -3.6752    1.6407   15.0801 H       1  <0>         0.0646
     45 H5         -2.5088    2.2899   17.1385 H       1  <0>         0.0626
     46 H6         -6.9254   -0.1983   17.1317 H       1  <0>         0.0675
     47 H7         -2.6316   -2.2812   25.6759 H       1  <0>         0.0633
     48 H8         -1.0070   -0.2862   30.1458 H       1  <0>         0.0789
     49 H9         -1.9630    3.1631   22.1307 H       1  <0>         0.0846
     50 H10        -5.9061   -4.4046   32.7701 H       1  <0>         0.0306
     51 H11        -7.1408   -3.6416   31.7756 H       1  <0>         0.0306
     52 H12        -3.1589   -1.1308   19.2363 H       1  <0>         0.0484
     53 H13        -4.0213   -1.2896   20.7937 H       1  <0>         0.0484
     54 H14        -5.7935   -1.6947   31.3918 H       1  <0>         0.0465
     55 H15        -4.8440   -2.2541   32.7758 H       1  <0>         0.0465
     56 H16        -1.9908   -2.6949   20.9504 H       1  <0>         0.0480
     57 H17        -0.9602   -1.3702   20.3459 H       1  <0>         0.0480
     58 H18        -0.6011    0.6500   22.6512 H       1  <0>         0.0527
     59 H19        -2.1463    0.5523   23.5667 H       1  <0>         0.0527
     60 H20        -3.5061   -4.8758   31.4854 H       1  <0>         0.0490
     61 H21        -3.4761   -4.6294   29.7691 H       1  <0>         0.0490
     62 H22        -5.8036   -5.6389   30.6394 H       1  <0>         0.0609
     63 H23         0.8960    0.5170   28.5573 H       1  <0>         0.1530
     64 H24        -5.7462   -4.6413   28.6703 H       1  <0>         0.2098
@<TRIPOS>BOND
     1     1    38    1
     2     2     3   ar
     3     2    14   ar
     4     3    15   ar
     5     4    14   ar
     6     4    18   ar
     7     5    16   ar
     8     5    17   ar
     9     6    19    2
    10     6    28    1
    11     7    20    2
    12     7    29    1
    13     8    10    1
    14     8    24    1
    15     9    11    1
    16     9    31    1
    17    10    33    1
    18    11    32    1
    19    12    20    1
    20    12    32    1
    21    13    24    1
    22    13    33    1
    23    14    39    1
    24    15    18   ar
    25    15    23    1
    26    16    19    1
    27    16    21   ar
    28    17    22   ar
    29    17    25    1
    30    18    40    1
    31    19    26    1
    32    20    31    1
    33    21    28    1
    34    21    30   ar
    35    22    30   ar
    36    22    38    1
    37    23    29    2
    38    23    31    1
    39    24    34    1
    40    25    32   am
    41    25    35    2
    42    26    27    1
    43    26    36    2
    44    27    33   am
    45    27    37    2
    46     1    41    1
    47     1    42    1
    48     1    43    1
    49     2    44    1
    50     3    45    1
    51     4    46    1
    52     5    47    1
    53     6    48    1
    54     7    49    1
    55     8    50    1
    56     8    51    1
    57     9    52    1
    58     9    53    1
    59    10    54    1
    60    10    55    1
    61    11    56    1
    62    11    57    1
    63    12    58    1
    64    12    59    1
    65    13    60    1
    66    13    61    1
    67    24    62    1
    68    28    63    1
    69    34    64    1
@<TRIPOS>SUBSTRUCTURE
     1 <0>         1 TEMP              0 ****  ****    0 ROOT

