
##########                                Name:        LGF_361_2QD9
##########                    Molecular_Weight:             550.522
##########                DOCK_Rotatable_Bonds:                   8
##########                       Formal_Charge:        -0.000100166
##########                     HBond_Acceptors:                  13
##########                        HBond_Donors:                   2
##########                         Heavy_Atoms:                  40
##########                            HA_RMSDs:               0.674
##########                            HA_RMSDh:               0.674
##########                            HA_RMSDm:               0.649
##########                          Grid_Score:          -72.184662
##########                     Grid_vdw_energy:          -71.481682
##########                      Grid_es_energy:           -0.702977
##########           Internal_energy_repulsive:           17.971008

@<TRIPOS>MOLECULE
LGF_361_2QD9
 64 69 1 0 0
SMALL
USER_CHARGES


@<TRIPOS>ATOM
      1 C1          2.6897    0.1151   23.5307 C.3     1  <0>         0.0447
      2 C2         -4.3674    1.5253   16.0414 C.ar    1  <0>        -0.0256
      3 C3         -3.6328    1.9223   17.1161 C.ar    1  <0>        -0.0458
      4 C4         -6.0388    0.2924   17.2674 C.ar    1  <0>         0.0095
      5 C5         -1.4481   -1.4008   25.7130 C.ar    1  <0>        -0.0344
      6 C6         -0.4134   -0.0282   28.9503 C.2     1  <0>         0.0068
      7 C7         -2.1964    2.6030   21.2768 C.2     1  <0>         0.0485
      8 C8         -5.5463   -2.6918   32.2746 C.3     1  <0>        -0.0095
      9 C9         -3.1306   -0.7659   20.3497 C.3     1  <0>         0.0342
     10 C10        -4.9997   -1.3461   31.7360 C.3     1  <0>         0.0176
     11 C11        -1.8824   -1.4756   20.9265 C.3     1  <0>         0.0315
     12 C12        -1.5022    0.5347   22.4916 C.3     1  <0>         0.0548
     13 C13        -3.3103   -3.0575   31.4886 C.3     1  <0>         0.0411
     14 C14        -5.5356    0.7178   16.1216 C.ar    1  <0>         0.1262
     15 C15        -4.1226    1.4202   18.3847 C.ar    1  <0>         0.0505
     16 C16        -0.8286   -0.7962   26.8820 C.ar    1  <0>         0.0281
     17 C17        -0.6768   -1.2884   24.6141 C.ar    1  <0>         0.0867
     18 C18        -5.2932    0.7115   18.4120 C.ar    1  <0>         0.1365
     19 C19        -1.3323   -0.7389   28.2740 C.2     1  <0>         0.0511
     20 C20        -2.2042    1.2794   21.4449 C.2     1  <0>         0.0477
     21 C21         0.3035   -0.1551   26.8081 C.ar    1  <0>         0.1333
     22 C22         0.6445   -0.5212   24.6518 C.ar    1  <0>         0.1818
     23 C23        -3.3993    1.7155   19.6701 C.2     1  <0>         0.1354
     24 C24        -4.7094   -3.6739   31.4705 C.3     1  <0>         0.0724
     25 C25        -1.2132   -1.8782   23.2884 C.2     1  <0>         0.2511
     26 C26        -2.5704   -1.3459   28.8481 C.2     1  <0>         0.2493
     27 C27        -3.0586   -0.8976   30.2230 C.2     1  <0>         0.2871
     28 N1          0.5914    0.3179   28.0453 N.pl3   1  <0>        -0.3045
     29 N2         -2.9482    2.8486   20.0832 N.2     1  <0>        -0.2377
     30 N3          1.0718   -0.0236   25.7117 N.ar    1  <0>        -0.2072
     31 N4         -2.9135    0.6893   20.5033 N.pl3   1  <0>        -0.2839
     32 N5         -1.6542   -0.8867   22.2780 N.am    1  <0>        -0.2903
     33 N6         -3.7383   -1.7406   31.1013 N.am    1  <0>        -0.2923
     34 O1         -5.1819   -3.8768   30.1400 O.3     1  <0>        -0.3902
     35 O2         -1.2516   -3.0386   22.9809 O.2     1  <0>        -0.2698
     36 O3         -3.1861   -2.2434   28.2484 O.2     1  <0>        -0.2817
     37 O4         -2.8167    0.2468   30.6276 O.2     1  <0>        -0.2664
     38 O5          1.3224   -0.4153   23.4854 O.3     1  <0>        -0.3309
     39 F1         -6.0894    0.2316   15.0366 F       1  <0>        -0.2054
     40 F2         -5.7495    0.2060   19.5991 F       1  <0>        -0.2047
     41 H1          3.1073    0.1410   22.5135 H       1  <0>         0.0529
     42 H2          2.6742    1.1334   23.9466 H       1  <0>         0.0529
     43 H3          3.3127   -0.5313   24.1664 H       1  <0>         0.0529
     44 H4         -4.0416    1.8445   15.0625 H       1  <0>         0.0646
     45 H5         -2.7620    2.5556   17.0313 H       1  <0>         0.0626
     46 H6         -6.9296   -0.3147   17.3323 H       1  <0>         0.0675
     47 H7         -2.4141   -1.8836   25.7247 H       1  <0>         0.0633
     48 H8         -0.4464    0.2276   29.9991 H       1  <0>         0.0789
     49 H9         -1.7212    3.3374   21.9101 H       1  <0>         0.0846
     50 H10        -5.4008   -2.8026   33.3593 H       1  <0>         0.0306
     51 H11        -6.6250   -2.8111   32.0957 H       1  <0>         0.0306
     52 H12        -3.2578   -1.0222   19.2875 H       1  <0>         0.0484
     53 H13        -4.0326   -1.0765   20.8973 H       1  <0>         0.0484
     54 H14        -5.6914   -0.8832   31.0167 H       1  <0>         0.0465
     55 H15        -4.8395   -0.6176   32.5444 H       1  <0>         0.0465
     56 H16        -2.0546   -2.5594   21.0016 H       1  <0>         0.0480
     57 H17        -1.0089   -1.3075   20.2793 H       1  <0>         0.0480
     58 H18        -0.4332    0.7931   22.4658 H       1  <0>         0.0527
     59 H19        -1.9244    0.8013   23.4718 H       1  <0>         0.0527
     60 H20        -2.8045   -3.1037   32.4643 H       1  <0>         0.0490
     61 H21        -2.5965   -3.5269   30.7955 H       1  <0>         0.0490
     62 H22        -4.7466   -4.6829   31.9067 H       1  <0>         0.0609
     63 H23         1.4105    0.8424   28.2775 H       1  <0>         0.1530
     64 H24        -4.8258   -4.6882   29.7974 H       1  <0>         0.2098
@<TRIPOS>BOND
     1     1    38    1
     2     2     3   ar
     3     2    14   ar
     4     3    15   ar
     5     4    14   ar
     6     4    18   ar
     7     5    16   ar
     8     5    17   ar
     9     6    19    2
    10     6    28    1
    11     7    20    2
    12     7    29    1
    13     8    10    1
    14     8    24    1
    15     9    11    1
    16     9    31    1
    17    10    33    1
    18    11    32    1
    19    12    20    1
    20    12    32    1
    21    13    24    1
    22    13    33    1
    23    14    39    1
    24    15    18   ar
    25    15    23    1
    26    16    19    1
    27    16    21   ar
    28    17    22   ar
    29    17    25    1
    30    18    40    1
    31    19    26    1
    32    20    31    1
    33    21    28    1
    34    21    30   ar
    35    22    30   ar
    36    22    38    1
    37    23    29    2
    38    23    31    1
    39    24    34    1
    40    25    32   am
    41    25    35    2
    42    26    27    1
    43    26    36    2
    44    27    33   am
    45    27    37    2
    46     1    41    1
    47     1    42    1
    48     1    43    1
    49     2    44    1
    50     3    45    1
    51     4    46    1
    52     5    47    1
    53     6    48    1
    54     7    49    1
    55     8    50    1
    56     8    51    1
    57     9    52    1
    58     9    53    1
    59    10    54    1
    60    10    55    1
    61    11    56    1
    62    11    57    1
    63    12    58    1
    64    12    59    1
    65    13    60    1
    66    13    61    1
    67    24    62    1
    68    28    63    1
    69    34    64    1
@<TRIPOS>SUBSTRUCTURE
     1 <0>         1 TEMP              0 ****  ****    0 ROOT

