
##########                                Name:        LGF_361_2QD9
##########                    Molecular_Weight:             550.522
##########                DOCK_Rotatable_Bonds:                   8
##########                       Formal_Charge:        -0.000100166
##########                     HBond_Acceptors:                  13
##########                        HBond_Donors:                   2
##########                         Heavy_Atoms:                  40
##########                            HA_RMSDs:               0.478
##########                            HA_RMSDh:               0.478
##########                            HA_RMSDm:               0.478
##########                          Grid_Score:          -65.344131
##########                     Grid_vdw_energy:          -64.833748
##########                      Grid_es_energy:           -0.510382
##########           Internal_energy_repulsive:           17.564592

@<TRIPOS>MOLECULE
LGF_361_2QD9
 64 69 1 0 0
SMALL
USER_CHARGES


@<TRIPOS>ATOM
      1 C1          2.1746    0.6560   23.9060 C.3     1  <0>         0.0447
      2 C2         -4.0651    1.4321   15.8650 C.ar    1  <0>        -0.0256
      3 C3         -3.4631    1.8337   17.0176 C.ar    1  <0>        -0.0458
      4 C4         -5.8880    0.2300   16.8891 C.ar    1  <0>         0.0095
      5 C5         -1.8043   -1.6212   25.6762 C.ar    1  <0>        -0.0344
      6 C6         -1.2236   -0.3324   29.0580 C.2     1  <0>         0.0068
      7 C7         -2.6005    2.5761   21.3349 C.2     1  <0>         0.0485
      8 C8         -5.8710   -4.0312   31.9720 C.3     1  <0>        -0.0095
      9 C9         -3.0803   -0.8194   20.1850 C.3     1  <0>         0.0342
     10 C10        -5.6773   -2.5982   31.4165 C.3     1  <0>         0.0176
     11 C11        -1.8235   -1.4264   20.8529 C.3     1  <0>         0.0315
     12 C12        -1.8076    0.5307   22.5278 C.3     1  <0>         0.0548
     13 C13        -3.5645   -3.7720   31.3689 C.3     1  <0>         0.0411
     14 C14        -5.2436    0.6375   15.8095 C.ar    1  <0>         0.1262
     15 C15        -4.1101    1.3506   18.2216 C.ar    1  <0>         0.0505
     16 C16        -1.3713   -1.0079   26.9220 C.ar    1  <0>         0.0281
     17 C17        -0.9961   -1.3037   24.6461 C.ar    1  <0>         0.0867
     18 C18        -5.2832    0.6542   18.1123 C.ar    1  <0>         0.1365
     19 C19        -1.9637   -1.1352   28.2740 C.2     1  <0>         0.0511
     20 C20        -2.4834    1.2518   21.4479 C.2     1  <0>         0.0477
     21 C21        -0.3627   -0.1842   26.9708 C.ar    1  <0>         0.1333
     22 C22         0.1701   -0.3326   24.8274 C.ar    1  <0>         0.1818
     23 C23        -3.5461    1.6529   19.5830 C.2     1  <0>         0.1354
     24 C24        -4.7307   -4.7563   31.2753 C.3     1  <0>         0.0724
     25 C25        -1.3399   -1.8774   23.2511 C.2     1  <0>         0.2511
     26 C26        -3.1136   -1.9790   28.7173 C.2     1  <0>         0.2493
     27 C27        -3.8191   -1.6560   30.0317 C.2     1  <0>         0.2871
     28 N1         -0.2378    0.2399   28.2521 N.pl3   1  <0>        -0.3045
     29 N2         -3.2588    2.8037   20.0839 N.2     1  <0>        -0.2377
     30 N3          0.4390    0.1515   25.9440 N.ar    1  <0>        -0.2072
     31 N4         -3.0344    0.6408   20.4179 N.pl3   1  <0>        -0.2839
     32 N5         -1.7870   -0.8862   22.2430 N.am    1  <0>        -0.2903
     33 N6         -4.3080   -2.6367   30.8939 N.am    1  <0>        -0.2923
     34 O1         -5.0165   -5.1122   29.9239 O.3     1  <0>        -0.3902
     35 O2         -1.2258   -3.0186   22.8948 O.2     1  <0>        -0.2698
     36 O3         -3.4785   -2.9682   28.0598 O.2     1  <0>        -0.2817
     37 O4         -3.9391   -0.4813   30.4024 O.2     1  <0>        -0.2664
     38 O5          0.8917   -0.0320   23.7229 O.3     1  <0>        -0.3309
     39 F1         -5.6660    0.1449   14.6697 F       1  <0>        -0.2054
     40 F2         -5.8871    0.1666   19.2395 F       1  <0>        -0.2047
     41 H1          2.6407    0.8311   22.9252 H       1  <0>         0.0529
     42 H2          2.0052    1.6198   24.4085 H       1  <0>         0.0529
     43 H3          2.8399    0.0331   24.5220 H       1  <0>         0.0529
     44 H4         -3.6184    1.7371   14.9303 H       1  <0>         0.0646
     45 H5         -2.5813    2.4571   17.0339 H       1  <0>         0.0626
     46 H6         -6.7869   -0.3672   16.8504 H       1  <0>         0.0675
     47 H7         -2.6726   -2.2572   25.5873 H       1  <0>         0.0633
     48 H8         -1.3653   -0.1617   30.1149 H       1  <0>         0.0789
     49 H9         -2.2676    3.3222   22.0412 H       1  <0>         0.0846
     50 H10        -5.7907   -4.0734   33.0683 H       1  <0>         0.0306
     51 H11        -6.8555   -4.4522   31.7199 H       1  <0>         0.0306
     52 H12        -3.0793   -1.0334   19.1060 H       1  <0>         0.0484
     53 H13        -3.9916   -1.2474   20.6280 H       1  <0>         0.0484
     54 H14        -6.4085   -2.3635   30.6288 H       1  <0>         0.0465
     55 H15        -5.7933   -1.8368   32.2018 H       1  <0>         0.0465
     56 H16        -1.8858   -2.5246   20.8669 H       1  <0>         0.0480
     57 H17        -0.9159   -1.1378   20.3024 H       1  <0>         0.0480
     58 H18        -0.7745    0.8975   22.6180 H       1  <0>         0.0527
     59 H19        -2.3459    0.7031   23.4715 H       1  <0>         0.0527
     60 H20        -3.1483   -3.6534   32.3802 H       1  <0>         0.0490
     61 H21        -2.6937   -4.0372   30.7513 H       1  <0>         0.0490
     62 H22        -4.5220   -5.7256   31.7514 H       1  <0>         0.0609
     63 H23         0.4637    0.8749   28.5755 H       1  <0>         0.1530
     64 H24        -4.3911   -5.7634   29.6285 H       1  <0>         0.2098
@<TRIPOS>BOND
     1     1    38    1
     2     2     3   ar
     3     2    14   ar
     4     3    15   ar
     5     4    14   ar
     6     4    18   ar
     7     5    16   ar
     8     5    17   ar
     9     6    19    2
    10     6    28    1
    11     7    20    2
    12     7    29    1
    13     8    10    1
    14     8    24    1
    15     9    11    1
    16     9    31    1
    17    10    33    1
    18    11    32    1
    19    12    20    1
    20    12    32    1
    21    13    24    1
    22    13    33    1
    23    14    39    1
    24    15    18   ar
    25    15    23    1
    26    16    19    1
    27    16    21   ar
    28    17    22   ar
    29    17    25    1
    30    18    40    1
    31    19    26    1
    32    20    31    1
    33    21    28    1
    34    21    30   ar
    35    22    30   ar
    36    22    38    1
    37    23    29    2
    38    23    31    1
    39    24    34    1
    40    25    32   am
    41    25    35    2
    42    26    27    1
    43    26    36    2
    44    27    33   am
    45    27    37    2
    46     1    41    1
    47     1    42    1
    48     1    43    1
    49     2    44    1
    50     3    45    1
    51     4    46    1
    52     5    47    1
    53     6    48    1
    54     7    49    1
    55     8    50    1
    56     8    51    1
    57     9    52    1
    58     9    53    1
    59    10    54    1
    60    10    55    1
    61    11    56    1
    62    11    57    1
    63    12    58    1
    64    12    59    1
    65    13    60    1
    66    13    61    1
    67    24    62    1
    68    28    63    1
    69    34    64    1
@<TRIPOS>SUBSTRUCTURE
     1 <0>         1 TEMP              0 ****  ****    0 ROOT

