
##########                                Name:        LGF_361_2QD9
##########                    Molecular_Weight:             550.522
##########                DOCK_Rotatable_Bonds:                   8
##########                       Formal_Charge:        -0.000100166
##########                     HBond_Acceptors:                  13
##########                        HBond_Donors:                   2
##########                         Heavy_Atoms:                  40
##########                            HA_RMSDs:               0.411
##########                            HA_RMSDh:               0.411
##########                            HA_RMSDm:               0.411
##########                          Grid_Score:          -72.290535
##########                     Grid_vdw_energy:          -71.560356
##########                      Grid_es_energy:           -0.730177
##########           Internal_energy_repulsive:           19.576509

@<TRIPOS>MOLECULE
LGF_361_2QD9
 64 69 1 0 0
SMALL
USER_CHARGES


@<TRIPOS>ATOM
      1 C1          2.5975   -0.0191   23.8165 C.3     1  <0>         0.0447
      2 C2         -4.0646    1.3909   16.0050 C.ar    1  <0>        -0.0256
      3 C3         -3.3861    1.7683   17.1228 C.ar    1  <0>        -0.0458
      4 C4         -5.8996    0.3017   17.1288 C.ar    1  <0>         0.0095
      5 C5         -1.6051   -1.6359   25.7541 C.ar    1  <0>        -0.0344
      6 C6         -0.7844   -0.3286   29.0786 C.2     1  <0>         0.0068
      7 C7         -2.2672    2.4949   21.3818 C.2     1  <0>         0.0485
      8 C8         -5.5677   -3.9979   32.0093 C.3     1  <0>        -0.0095
      9 C9         -3.0413   -0.8746   20.3195 C.3     1  <0>         0.0342
     10 C10        -4.9781   -2.5742   31.8507 C.3     1  <0>         0.0176
     11 C11        -1.8026   -1.5607   20.9433 C.3     1  <0>         0.0315
     12 C12        -1.5704    0.4166   22.5780 C.3     1  <0>         0.0548
     13 C13        -3.4542   -4.1876   30.8919 C.3     1  <0>         0.0411
     14 C14        -5.2866    0.6630   16.0150 C.ar    1  <0>         0.1262
     15 C15        -3.9999    1.3328   18.3618 C.ar    1  <0>         0.0505
     16 C16        -1.0699   -1.0409   26.9688 C.ar    1  <0>         0.0281
     17 C17        -0.7982   -1.4377   24.6934 C.ar    1  <0>         0.0867
     18 C18        -5.2137    0.7021   18.3168 C.ar    1  <0>         0.1365
     19 C19        -1.6316   -1.0653   28.3394 C.2     1  <0>         0.0511
     20 C20        -2.2406    1.1676   21.5150 C.2     1  <0>         0.0477
     21 C21         0.0242   -0.3331   26.9655 C.ar    1  <0>         0.1333
     22 C22         0.4726   -0.5974   24.8139 C.ar    1  <0>         0.1818
     23 C23        -3.3548    1.6150   19.6911 C.2     1  <0>         0.1354
     24 C24        -4.8904   -4.7103   30.8494 C.3     1  <0>         0.0724
     25 C25        -1.2450   -2.0072   23.3262 C.2     1  <0>         0.2511
     26 C26        -2.8535   -1.7641   28.8389 C.2     1  <0>         0.2493
     27 C27        -3.1682   -1.7513   30.3323 C.2     1  <0>         0.2871
     28 N1          0.2336    0.1089   28.2296 N.pl3   1  <0>        -0.3045
     29 N2         -2.9631    2.7498   20.1567 N.2     1  <0>        -0.2377
     30 N3          0.8268   -0.1162   25.9078 N.ar    1  <0>        -0.2072
     31 N4         -2.8801    0.5819   20.5221 N.pl3   1  <0>        -0.2839
     32 N5         -1.6646   -1.0024   22.3198 N.am    1  <0>        -0.2903
     33 N6         -3.8188   -2.7996   30.9819 N.am    1  <0>        -0.2923
     34 O1         -5.5062   -4.4658   29.5863 O.3     1  <0>        -0.3902
     35 O2         -1.2295   -3.1593   22.9872 O.2     1  <0>        -0.2698
     36 O3         -3.5953   -2.3960   28.0677 O.2     1  <0>        -0.2817
     37 O4         -2.8026   -0.8027   31.0382 O.2     1  <0>        -0.2664
     38 O5          1.1893   -0.4085   23.6818 O.3     1  <0>        -0.3309
     39 F1         -5.7903    0.1848   14.9024 F       1  <0>        -0.2054
     40 F2         -5.7885    0.2590   19.4770 F       1  <0>        -0.2047
     41 H1          3.0437    0.0962   22.8177 H       1  <0>         0.0529
     42 H2          2.6635    0.9351   24.3598 H       1  <0>         0.0529
     43 H3          3.1411   -0.7966   24.3732 H       1  <0>         0.0529
     44 H4         -3.6474    1.6622   15.0465 H       1  <0>         0.0646
     45 H5         -2.4714    2.3415   17.0897 H       1  <0>         0.0626
     46 H6         -6.8310   -0.2447   17.1400 H       1  <0>         0.0675
     47 H7         -2.5404   -2.1738   25.7078 H       1  <0>         0.0633
     48 H8         -0.8745   -0.1149   30.1334 H       1  <0>         0.0789
     49 H9         -1.8500    3.2261   22.0583 H       1  <0>         0.0846
     50 H10        -5.3243   -4.4497   32.9822 H       1  <0>         0.0306
     51 H11        -6.6648   -4.0116   31.9303 H       1  <0>         0.0306
     52 H12        -3.1044   -1.1054   19.2458 H       1  <0>         0.0484
     53 H13        -3.9601   -1.2282   20.8102 H       1  <0>         0.0484
     54 H14        -5.7010   -1.8814   31.3953 H       1  <0>         0.0465
     55 H15        -4.6846   -2.1438   32.8195 H       1  <0>         0.0465
     56 H16        -1.9430   -2.6510   20.9811 H       1  <0>         0.0480
     57 H17        -0.9023   -1.3476   20.3481 H       1  <0>         0.0480
     58 H18        -0.5106    0.7088   22.6157 H       1  <0>         0.0527
     59 H19        -2.0518    0.6428   23.5408 H       1  <0>         0.0527
     60 H20        -2.8592   -4.5583   31.7396 H       1  <0>         0.0490
     61 H21        -2.8498   -4.4436   30.0093 H       1  <0>         0.0490
     62 H22        -4.9596   -5.8030   30.9551 H       1  <0>         0.0609
     63 H23         1.0102    0.6707   28.5146 H       1  <0>         0.1530
     64 H24        -5.0591   -4.9658   28.9135 H       1  <0>         0.2098
@<TRIPOS>BOND
     1     1    38    1
     2     2     3   ar
     3     2    14   ar
     4     3    15   ar
     5     4    14   ar
     6     4    18   ar
     7     5    16   ar
     8     5    17   ar
     9     6    19    2
    10     6    28    1
    11     7    20    2
    12     7    29    1
    13     8    10    1
    14     8    24    1
    15     9    11    1
    16     9    31    1
    17    10    33    1
    18    11    32    1
    19    12    20    1
    20    12    32    1
    21    13    24    1
    22    13    33    1
    23    14    39    1
    24    15    18   ar
    25    15    23    1
    26    16    19    1
    27    16    21   ar
    28    17    22   ar
    29    17    25    1
    30    18    40    1
    31    19    26    1
    32    20    31    1
    33    21    28    1
    34    21    30   ar
    35    22    30   ar
    36    22    38    1
    37    23    29    2
    38    23    31    1
    39    24    34    1
    40    25    32   am
    41    25    35    2
    42    26    27    1
    43    26    36    2
    44    27    33   am
    45    27    37    2
    46     1    41    1
    47     1    42    1
    48     1    43    1
    49     2    44    1
    50     3    45    1
    51     4    46    1
    52     5    47    1
    53     6    48    1
    54     7    49    1
    55     8    50    1
    56     8    51    1
    57     9    52    1
    58     9    53    1
    59    10    54    1
    60    10    55    1
    61    11    56    1
    62    11    57    1
    63    12    58    1
    64    12    59    1
    65    13    60    1
    66    13    61    1
    67    24    62    1
    68    28    63    1
    69    34    64    1
@<TRIPOS>SUBSTRUCTURE
     1 <0>         1 TEMP              0 ****  ****    0 ROOT

