
##########                                Name:        LGF_361_2QD9
##########                    Molecular_Weight:             550.522
##########                DOCK_Rotatable_Bonds:                   8
##########                       Formal_Charge:        -0.000100166
##########                     HBond_Acceptors:                  13
##########                        HBond_Donors:                   2
##########                         Heavy_Atoms:                  40
##########                            HA_RMSDs:               0.642
##########                            HA_RMSDh:               0.642
##########                            HA_RMSDm:               0.625
##########                          Grid_Score:          -71.886589
##########                     Grid_vdw_energy:          -71.256737
##########                      Grid_es_energy:           -0.629855
##########           Internal_energy_repulsive:           15.693618

@<TRIPOS>MOLECULE
LGF_361_2QD9
 64 69 1 0 0
SMALL
USER_CHARGES


@<TRIPOS>ATOM
      1 C1          2.6782    0.0218   23.6463 C.3     1  <0>         0.0447
      2 C2         -4.2754    1.4581   15.9499 C.ar    1  <0>        -0.0256
      3 C3         -3.5663    1.8617   17.0392 C.ar    1  <0>        -0.0458
      4 C4         -6.0020    0.2728   17.1460 C.ar    1  <0>         0.0095
      5 C5         -1.5882   -1.3382   25.6797 C.ar    1  <0>        -0.0344
      6 C6         -0.6472    0.0628   28.9334 C.2     1  <0>         0.0068
      7 C7         -2.2563    2.5985   21.2345 C.2     1  <0>         0.0485
      8 C8         -5.4840   -2.8236   32.3324 C.3     1  <0>        -0.0095
      9 C9         -3.1293   -0.7825   20.2919 C.3     1  <0>         0.0342
     10 C10        -5.1221   -1.4313   31.7575 C.3     1  <0>         0.0176
     11 C11        -1.8865   -1.4766   20.8985 C.3     1  <0>         0.0315
     12 C12        -1.5661    0.5403   22.4686 C.3     1  <0>         0.0548
     13 C13        -3.2572   -2.9386   31.4495 C.3     1  <0>         0.0411
     14 C14        -5.4585    0.6707   16.0088 C.ar    1  <0>         0.1262
     15 C15        -4.1013    1.3890   18.3009 C.ar    1  <0>         0.0505
     16 C16        -0.9994   -0.7309   26.8631 C.ar    1  <0>         0.0281
     17 C17        -0.7685   -1.2700   24.6127 C.ar    1  <0>         0.0867
     18 C18        -5.2835    0.6995   18.3052 C.ar    1  <0>         0.1365
     19 C19        -1.5588   -0.6321   28.2314 C.2     1  <0>         0.0511
     20 C20        -2.2524    1.2752   21.4047 C.2     1  <0>         0.0477
     21 C21         0.1542   -0.1261   26.8260 C.ar    1  <0>         0.1333
     22 C22         0.5734   -0.5428   24.6927 C.ar    1  <0>         0.1818
     23 C23        -3.4113    1.6947   19.6021 C.2     1  <0>         0.1354
     24 C24        -4.5744   -3.7133   31.5001 C.3     1  <0>         0.0724
     25 C25        -1.2673   -1.8679   23.2759 C.2     1  <0>         0.2511
     26 C26        -2.8381   -1.1903   28.7631 C.2     1  <0>         0.2493
     27 C27        -3.3145   -0.7822   30.1545 C.2     1  <0>         0.2871
     28 N1          0.4049    0.3611   28.0658 N.pl3   1  <0>        -0.3045
     29 N2         -2.9832    2.8335   20.0235 N.2     1  <0>        -0.2377
     30 N3          0.9714   -0.0386   25.7609 N.ar    1  <0>        -0.2072
     31 N4         -2.9328    0.6754   20.4480 N.pl3   1  <0>        -0.2839
     32 N5         -1.6964   -0.8831   22.2539 N.am    1  <0>        -0.2903
     33 N6         -3.8523   -1.6858   31.0701 N.am    1  <0>        -0.2923
     34 O1         -5.0778   -3.9884   30.1942 O.3     1  <0>        -0.3902
     35 O2         -1.2850   -3.0291   22.9696 O.2     1  <0>        -0.2698
     36 O3         -3.4998   -2.0175   28.1134 O.2     1  <0>        -0.2817
     37 O4         -3.1901    0.3881   30.5375 O.2     1  <0>        -0.2664
     38 O5          1.3023   -0.4794   23.5545 O.3     1  <0>        -0.3309
     39 F1         -5.9880    0.1749   14.9161 F       1  <0>        -0.2054
     40 F2         -5.7828    0.2215   19.4864 F       1  <0>        -0.2047
     41 H1          3.1391    0.0143   22.6475 H       1  <0>         0.0529
     42 H2          2.6685    1.0497   24.0378 H       1  <0>         0.0529
     43 H3          3.2588   -0.6229   24.3226 H       1  <0>         0.0529
     44 H4         -3.9158    1.7554   14.9759 H       1  <0>         0.0646
     45 H5         -2.6832    2.4796   16.9698 H       1  <0>         0.0626
     46 H6         -6.9041   -0.3189   17.1945 H       1  <0>         0.0675
     47 H7         -2.5684   -1.7911   25.6589 H       1  <0>         0.0633
     48 H8         -0.7159    0.3391   29.9752 H       1  <0>         0.0789
     49 H9         -1.8044    3.3394   21.8774 H       1  <0>         0.0846
     50 H10        -5.2793   -2.9014   33.4103 H       1  <0>         0.0306
     51 H11        -6.5483   -3.0697   32.2034 H       1  <0>         0.0306
     52 H12        -3.2290   -1.0418   19.2276 H       1  <0>         0.0484
     53 H13        -4.0400   -1.1029   20.8192 H       1  <0>         0.0484
     54 H14        -5.8938   -1.0620   31.0661 H       1  <0>         0.0465
     55 H15        -5.0126   -0.6778   32.5514 H       1  <0>         0.0465
     56 H16        -2.0477   -2.5623   20.9715 H       1  <0>         0.0480
     57 H17        -1.0004   -1.2992   20.2714 H       1  <0>         0.0480
     58 H18        -0.4999    0.8112   22.4670 H       1  <0>         0.0527
     59 H19        -2.0139    0.8033   23.4383 H       1  <0>         0.0527
     60 H20        -2.7073   -2.9120   32.4019 H       1  <0>         0.0490
     61 H21        -2.5247   -3.3318   30.7293 H       1  <0>         0.0490
     62 H22        -4.4747   -4.7135   31.9467 H       1  <0>         0.0609
     63 H23         1.2295    0.8647   28.3233 H       1  <0>         0.1530
     64 H24        -4.6323   -4.7472   29.8361 H       1  <0>         0.2098
@<TRIPOS>BOND
     1     1    38    1
     2     2     3   ar
     3     2    14   ar
     4     3    15   ar
     5     4    14   ar
     6     4    18   ar
     7     5    16   ar
     8     5    17   ar
     9     6    19    2
    10     6    28    1
    11     7    20    2
    12     7    29    1
    13     8    10    1
    14     8    24    1
    15     9    11    1
    16     9    31    1
    17    10    33    1
    18    11    32    1
    19    12    20    1
    20    12    32    1
    21    13    24    1
    22    13    33    1
    23    14    39    1
    24    15    18   ar
    25    15    23    1
    26    16    19    1
    27    16    21   ar
    28    17    22   ar
    29    17    25    1
    30    18    40    1
    31    19    26    1
    32    20    31    1
    33    21    28    1
    34    21    30   ar
    35    22    30   ar
    36    22    38    1
    37    23    29    2
    38    23    31    1
    39    24    34    1
    40    25    32   am
    41    25    35    2
    42    26    27    1
    43    26    36    2
    44    27    33   am
    45    27    37    2
    46     1    41    1
    47     1    42    1
    48     1    43    1
    49     2    44    1
    50     3    45    1
    51     4    46    1
    52     5    47    1
    53     6    48    1
    54     7    49    1
    55     8    50    1
    56     8    51    1
    57     9    52    1
    58     9    53    1
    59    10    54    1
    60    10    55    1
    61    11    56    1
    62    11    57    1
    63    12    58    1
    64    12    59    1
    65    13    60    1
    66    13    61    1
    67    24    62    1
    68    28    63    1
    69    34    64    1
@<TRIPOS>SUBSTRUCTURE
     1 <0>         1 TEMP              0 ****  ****    0 ROOT

