
##########                                Name:        LGF_361_2QD9
##########                    Molecular_Weight:             550.522
##########                DOCK_Rotatable_Bonds:                   8
##########                       Formal_Charge:        -0.000100166
##########                     HBond_Acceptors:                  13
##########                        HBond_Donors:                   2
##########                         Heavy_Atoms:                  40
##########                            HA_RMSDs:               0.423
##########                            HA_RMSDh:               0.423
##########                            HA_RMSDm:               0.423
##########                          Grid_Score:          -73.206642
##########                     Grid_vdw_energy:          -72.825272
##########                      Grid_es_energy:           -0.381368
##########           Internal_energy_repulsive:           21.681986

@<TRIPOS>MOLECULE
LGF_361_2QD9
 64 69 1 0 0
SMALL
USER_CHARGES


@<TRIPOS>ATOM
      1 C1          2.3778   -0.0039   23.7913 C.3     1  <0>         0.0447
      2 C2         -4.0847    1.8764   15.9482 C.ar    1  <0>        -0.0256
      3 C3         -3.4340    2.2054   17.0972 C.ar    1  <0>        -0.0458
      4 C4         -5.7560    0.4573   16.9531 C.ar    1  <0>         0.0095
      5 C5         -1.8624   -1.7239   25.6023 C.ar    1  <0>        -0.0344
      6 C6         -1.0450   -0.5599   28.9805 C.2     1  <0>         0.0068
      7 C7         -2.2389    2.5439   21.3692 C.2     1  <0>         0.0485
      8 C8         -6.2086   -3.7911   31.7391 C.3     1  <0>        -0.0095
      9 C9         -3.1476   -0.7489   20.1803 C.3     1  <0>         0.0342
     10 C10        -5.5586   -2.3986   31.5435 C.3     1  <0>         0.0176
     11 C11        -1.9533   -1.5122   20.8010 C.3     1  <0>         0.0315
     12 C12        -1.6604    0.3969   22.5055 C.3     1  <0>         0.0548
     13 C13        -4.0320   -4.1129   30.7853 C.3     1  <0>         0.0411
     14 C14        -5.2118    1.0110   15.8834 C.ar    1  <0>         0.1262
     15 C15        -3.9678    1.5645   18.2829 C.ar    1  <0>         0.0505
     16 C16        -1.3206   -1.1989   26.8460 C.ar    1  <0>         0.0281
     17 C17        -1.0130   -1.5605   24.5694 C.ar    1  <0>         0.0867
     18 C18        -5.0992    0.8022   18.1744 C.ar    1  <0>         0.1365
     19 C19        -1.9219   -1.2145   28.1999 C.2     1  <0>         0.0511
     20 C20        -2.2758    1.2131   21.4577 C.2     1  <0>         0.0477
     21 C21        -0.1781   -0.5737   26.8906 C.ar    1  <0>         0.1333
     22 C22         0.3118   -0.8191   24.7459 C.ar    1  <0>         0.1818
     23 C23        -3.3348    1.7721   19.6316 C.2     1  <0>         0.1354
     24 C24        -5.4798   -4.5909   30.6711 C.3     1  <0>         0.0724
     25 C25        -1.4605   -2.0629   23.1764 C.2     1  <0>         0.2511
     26 C26        -3.2055   -1.8331   28.6479 C.2     1  <0>         0.2493
     27 C27        -3.6208   -1.7236   30.1125 C.2     1  <0>         0.2871
     28 N1          0.0264   -0.1785   28.1709 N.pl3   1  <0>        -0.3045
     29 N2         -2.8999    2.8713   20.1420 N.2     1  <0>        -0.2377
     30 N3          0.6683   -0.3914   25.8610 N.ar    1  <0>        -0.2072
     31 N4         -2.9233    0.6910   20.4348 N.pl3   1  <0>        -0.2839
     32 N5         -1.8150   -1.0069   22.1977 N.am    1  <0>        -0.2903
     33 N6         -4.3515   -2.7111   30.7721 N.am    1  <0>        -0.2923
     34 O1         -5.9986   -4.4003   29.3562 O.3     1  <0>        -0.3902
     35 O2         -1.4917   -3.2026   22.7987 O.2     1  <0>        -0.2698
     36 O3         -3.9205   -2.4760   27.8607 O.2     1  <0>        -0.2817
     37 O4         -3.2703   -0.7479   30.7885 O.2     1  <0>        -0.2664
     38 O5          1.0727   -0.6567   23.6388 O.3     1  <0>        -0.3309
     39 F1         -5.6771    0.6028   14.7271 F       1  <0>        -0.2054
     40 F2         -5.5949    0.1672   19.2808 F       1  <0>        -0.2047
     41 H1          2.8752    0.0557   22.8121 H       1  <0>         0.0529
     42 H2          2.2356    1.0104   24.1925 H       1  <0>         0.0529
     43 H3          3.0012   -0.5883   24.4841 H       1  <0>         0.0529
     44 H4         -3.7213    2.3005   15.0239 H       1  <0>         0.0646
     45 H5         -2.5941    2.8840   17.1235 H       1  <0>         0.0626
     46 H6         -6.6160   -0.1944   16.9082 H       1  <0>         0.0675
     47 H7         -2.8328   -2.1903   25.5169 H       1  <0>         0.0633
     48 H8         -1.1497   -0.3652   30.0376 H       1  <0>         0.0789
     49 H9         -1.8009    3.2320   22.0770 H       1  <0>         0.0846
     50 H10        -6.0486   -4.1933   32.7504 H       1  <0>         0.0306
     51 H11        -7.2975   -3.7741   31.5842 H       1  <0>         0.0306
     52 H12        -3.2016   -0.9407   19.0984 H       1  <0>         0.0484
     53 H13        -4.0905   -1.0753   20.6432 H       1  <0>         0.0484
     54 H14        -6.2233   -1.7105   31.0006 H       1  <0>         0.0465
     55 H15        -5.3167   -1.9223   32.5050 H       1  <0>         0.0465
     56 H16        -2.1444   -2.5954   20.7993 H       1  <0>         0.0480
     57 H17        -1.0335   -1.3216   20.2285 H       1  <0>         0.0480
     58 H18        -0.5891    0.6380   22.5709 H       1  <0>         0.0527
     59 H19        -2.1483    0.6132   23.4673 H       1  <0>         0.0527
     60 H20        -3.5100   -4.4528   31.6920 H       1  <0>         0.0490
     61 H21        -3.3782   -4.4390   29.9629 H       1  <0>         0.0490
     62 H22        -5.5953   -5.6729   30.8323 H       1  <0>         0.0609
     63 H23         0.8333    0.3177   28.4913 H       1  <0>         0.1530
     64 H24        -5.3358   -4.6338   28.7169 H       1  <0>         0.2098
@<TRIPOS>BOND
     1     1    38    1
     2     2     3   ar
     3     2    14   ar
     4     3    15   ar
     5     4    14   ar
     6     4    18   ar
     7     5    16   ar
     8     5    17   ar
     9     6    19    2
    10     6    28    1
    11     7    20    2
    12     7    29    1
    13     8    10    1
    14     8    24    1
    15     9    11    1
    16     9    31    1
    17    10    33    1
    18    11    32    1
    19    12    20    1
    20    12    32    1
    21    13    24    1
    22    13    33    1
    23    14    39    1
    24    15    18   ar
    25    15    23    1
    26    16    19    1
    27    16    21   ar
    28    17    22   ar
    29    17    25    1
    30    18    40    1
    31    19    26    1
    32    20    31    1
    33    21    28    1
    34    21    30   ar
    35    22    30   ar
    36    22    38    1
    37    23    29    2
    38    23    31    1
    39    24    34    1
    40    25    32   am
    41    25    35    2
    42    26    27    1
    43    26    36    2
    44    27    33   am
    45    27    37    2
    46     1    41    1
    47     1    42    1
    48     1    43    1
    49     2    44    1
    50     3    45    1
    51     4    46    1
    52     5    47    1
    53     6    48    1
    54     7    49    1
    55     8    50    1
    56     8    51    1
    57     9    52    1
    58     9    53    1
    59    10    54    1
    60    10    55    1
    61    11    56    1
    62    11    57    1
    63    12    58    1
    64    12    59    1
    65    13    60    1
    66    13    61    1
    67    24    62    1
    68    28    63    1
    69    34    64    1
@<TRIPOS>SUBSTRUCTURE
     1 <0>         1 TEMP              0 ****  ****    0 ROOT

