
##########                                Name:        LGF_361_2QD9
##########                    Molecular_Weight:             550.522
##########                DOCK_Rotatable_Bonds:                   8
##########                       Formal_Charge:        -0.000100166
##########                     HBond_Acceptors:                  13
##########                        HBond_Donors:                   2
##########                         Heavy_Atoms:                  40
##########                            HA_RMSDs:               0.430
##########                            HA_RMSDh:               0.430
##########                            HA_RMSDm:               0.430
##########                          Grid_Score:          -71.340942
##########                     Grid_vdw_energy:          -70.557716
##########                      Grid_es_energy:           -0.783225
##########           Internal_energy_repulsive:           17.703890

@<TRIPOS>MOLECULE
LGF_361_2QD9
 64 69 1 0 0
SMALL
USER_CHARGES


@<TRIPOS>ATOM
      1 C1          2.7211   -0.1202   23.8223 C.3     1  <0>         0.0447
      2 C2         -4.1086    1.6873   16.0973 C.ar    1  <0>        -0.0256
      3 C3         -3.4127    2.0386   17.2128 C.ar    1  <0>        -0.0458
      4 C4         -5.8806    0.4967   17.2194 C.ar    1  <0>         0.0095
      5 C5         -1.5732   -1.5414   25.7395 C.ar    1  <0>        -0.0344
      6 C6         -0.6778   -0.2917   29.0669 C.2     1  <0>         0.0068
      7 C7         -2.1779    2.6085   21.4584 C.2     1  <0>         0.0485
      8 C8         -5.6127   -3.6413   32.0501 C.3     1  <0>        -0.0095
      9 C9         -3.0417   -0.7257   20.3547 C.3     1  <0>         0.0342
     10 C10        -5.0426   -2.2201   31.8158 C.3     1  <0>         0.0176
     11 C11        -1.8091   -1.4486   20.9484 C.3     1  <0>         0.0315
     12 C12        -1.5091    0.4964   22.6105 C.3     1  <0>         0.0548
     13 C13        -3.4661   -3.8631   31.0041 C.3     1  <0>         0.0411
     14 C14        -5.3079    0.9225   16.1070 C.ar    1  <0>         0.1262
     15 C15        -3.9807    1.5335   18.4472 C.ar    1  <0>         0.0505
     16 C16        -1.0024   -0.9858   26.9567 C.ar    1  <0>         0.0281
     17 C17        -0.7463   -1.4083   24.6842 C.ar    1  <0>         0.0867
     18 C18        -5.1761    0.8684   18.4058 C.ar    1  <0>         0.1365
     19 C19        -1.5737   -0.9635   28.3234 C.2     1  <0>         0.0511
     20 C20        -2.1785    1.2790   21.5701 C.2     1  <0>         0.0477
     21 C21         0.1426   -0.3637   26.9596 C.ar    1  <0>         0.1333
     22 C22         0.5843   -0.6673   24.8118 C.ar    1  <0>         0.1818
     23 C23        -3.3098    1.7801   19.7708 C.2     1  <0>         0.1354
     24 C24        -4.8916   -4.4139   30.9571 C.3     1  <0>         0.0724
     25 C25        -1.2259   -1.9457   23.3151 C.2     1  <0>         0.2511
     26 C26        -2.8489   -1.5655   28.8157 C.2     1  <0>         0.2493
     27 C27        -3.2052   -1.4629   30.2963 C.2     1  <0>         0.2871
     28 N1          0.3765    0.0644   28.2242 N.pl3   1  <0>        -0.3045
     29 N2         -2.8863    2.8983   20.2483 N.2     1  <0>        -0.2377
     30 N3          0.9666   -0.2116   25.9071 N.ar    1  <0>        -0.2072
     31 N4         -2.8454    0.7235   20.5778 N.pl3   1  <0>        -0.2839
     32 N5         -1.6384   -0.9158   22.3313 N.am    1  <0>        -0.2903
     33 N6         -3.8560   -2.4792   30.9946 N.am    1  <0>        -0.2923
     34 O1         -5.4760   -4.2621   29.6648 O.3     1  <0>        -0.3902
     35 O2         -1.2408   -3.0922   22.9576 O.2     1  <0>        -0.2698
     36 O3         -3.6044   -2.1896   28.0515 O.2     1  <0>        -0.2817
     37 O4         -2.8752   -0.4645   30.9490 O.2     1  <0>        -0.2664
     38 O5          1.3210   -0.5368   23.6843 O.3     1  <0>        -0.3309
     39 F1         -5.8261    0.4756   14.9880 F       1  <0>        -0.2054
     40 F2         -5.7070    0.3602   19.5602 F       1  <0>        -0.2047
     41 H1          3.1857   -0.0589   22.8272 H       1  <0>         0.0529
     42 H2          2.7639    0.8658   24.3082 H       1  <0>         0.0529
     43 H3          3.2634   -0.8551   24.4354 H       1  <0>         0.0529
     44 H4         -3.7248    2.0107   15.1410 H       1  <0>         0.0646
     45 H5         -2.5164    2.6405   17.1812 H       1  <0>         0.0626
     46 H6         -6.7949   -0.0779   17.2307 H       1  <0>         0.0675
     47 H7         -2.5465   -2.0064   25.6879 H       1  <0>         0.0633
     48 H8         -0.7586   -0.0688   30.1206 H       1  <0>         0.0789
     49 H9         -1.7345    3.3194   22.1400 H       1  <0>         0.0846
     50 H10        -5.3889   -4.0253   33.0563 H       1  <0>         0.0306
     51 H11        -6.7068   -3.6802   31.9429 H       1  <0>         0.0306
     52 H12        -3.1259   -0.9376   19.2785 H       1  <0>         0.0484
     53 H13        -3.9606   -1.0671   20.8536 H       1  <0>         0.0484
     54 H14        -5.7641   -1.5712   31.2975 H       1  <0>         0.0465
     55 H15        -4.7834   -1.7231   32.7623 H       1  <0>         0.0465
     56 H16        -1.9729   -2.5361   20.9709 H       1  <0>         0.0480
     57 H17        -0.9135   -1.2455   20.3429 H       1  <0>         0.0480
     58 H18        -0.4427    0.7648   22.6367 H       1  <0>         0.0527
     59 H19        -1.9709    0.7174   23.5841 H       1  <0>         0.0527
     60 H20        -2.8888   -4.1678   31.8895 H       1  <0>         0.0490
     61 H21        -2.8331   -4.1641   30.1563 H       1  <0>         0.0490
     62 H22        -4.9455   -5.4987   31.1311 H       1  <0>         0.0609
     63 H23         1.1918    0.5660   28.5134 H       1  <0>         0.1530
     64 H24        -4.9554   -4.7324   29.0242 H       1  <0>         0.2098
@<TRIPOS>BOND
     1     1    38    1
     2     2     3   ar
     3     2    14   ar
     4     3    15   ar
     5     4    14   ar
     6     4    18   ar
     7     5    16   ar
     8     5    17   ar
     9     6    19    2
    10     6    28    1
    11     7    20    2
    12     7    29    1
    13     8    10    1
    14     8    24    1
    15     9    11    1
    16     9    31    1
    17    10    33    1
    18    11    32    1
    19    12    20    1
    20    12    32    1
    21    13    24    1
    22    13    33    1
    23    14    39    1
    24    15    18   ar
    25    15    23    1
    26    16    19    1
    27    16    21   ar
    28    17    22   ar
    29    17    25    1
    30    18    40    1
    31    19    26    1
    32    20    31    1
    33    21    28    1
    34    21    30   ar
    35    22    30   ar
    36    22    38    1
    37    23    29    2
    38    23    31    1
    39    24    34    1
    40    25    32   am
    41    25    35    2
    42    26    27    1
    43    26    36    2
    44    27    33   am
    45    27    37    2
    46     1    41    1
    47     1    42    1
    48     1    43    1
    49     2    44    1
    50     3    45    1
    51     4    46    1
    52     5    47    1
    53     6    48    1
    54     7    49    1
    55     8    50    1
    56     8    51    1
    57     9    52    1
    58     9    53    1
    59    10    54    1
    60    10    55    1
    61    11    56    1
    62    11    57    1
    63    12    58    1
    64    12    59    1
    65    13    60    1
    66    13    61    1
    67    24    62    1
    68    28    63    1
    69    34    64    1
@<TRIPOS>SUBSTRUCTURE
     1 <0>         1 TEMP              0 ****  ****    0 ROOT

