
##########                                Name:        BB2_501_1LRU
##########                    Molecular_Weight:             385.504
##########                DOCK_Rotatable_Bonds:                  16
##########                       Formal_Charge:         0.000500247
##########                     HBond_Acceptors:                   8
##########                        HBond_Donors:                   4
##########                         Heavy_Atoms:                  27
##########                            HA_RMSDs:               1.212
##########                            HA_RMSDh:               1.212
##########                            HA_RMSDm:               1.179
##########                          Grid_Score:          -54.802563
##########                     Grid_vdw_energy:          -52.950775
##########                      Grid_es_energy:           -1.851787
##########           Internal_energy_repulsive:           33.703835

@<TRIPOS>MOLECULE
BB2_501_1LRU
 62 62 1 0 0
SMALL
USER_CHARGES


@<TRIPOS>ATOM
      1 C1        -35.0848   22.2414   67.2121 C.3     1  <0>        -0.0653
      2 C2        -37.6473   29.6304   66.5645 C.3     1  <0>        -0.0605
      3 C3        -39.5341   28.6044   67.7604 C.3     1  <0>        -0.0605
      4 C4        -38.2220   25.1202   71.0169 C.3     1  <0>        -0.0354
      5 C5        -39.2399   24.1449   70.5690 C.3     1  <0>        -0.0307
      6 C6        -38.3058   26.2070   70.0083 C.3     1  <0>         0.0152
      7 C7        -34.6520   22.5578   65.8043 C.3     1  <0>        -0.0559
      8 C8        -33.8175   23.8149   65.5502 C.3     1  <0>        -0.0533
      9 C9        -33.9321   24.7781   66.6936 C.3     1  <0>        -0.0524
     10 C10       -33.2283   26.1238   66.3863 C.3     1  <0>        -0.0415
     11 C11       -40.5249   24.3275   68.3110 C.3     1  <0>         0.0628
     12 C12       -33.3275   28.3346   65.0623 C.3     1  <0>         0.0370
     13 C13       -39.1674   24.1779   69.0309 C.3     1  <0>         0.0492
     14 C14       -38.4003   28.3343   66.8248 C.3     1  <0>        -0.0197
     15 C15       -34.1100   27.1480   65.6514 C.3     1  <0>         0.0438
     16 C16       -37.4624   27.2600   67.4300 C.3     1  <0>         0.1019
     17 C17       -32.7021   27.8927   63.7441 C.2     1  <0>         0.2362
     18 C18       -35.1824   27.6190   66.6315 C.2     1  <0>         0.2172
     19 C19       -38.1909   25.9138   67.5303 C.2     1  <0>         0.2365
     20 N1        -36.3368   26.9777   66.5509 N.am    1  <0>        -0.3035
     21 N2        -31.5654   27.2272   63.7314 N.am    1  <0>        -0.1975
     22 N3        -38.4870   25.4526   68.7615 N.am    1  <0>        -0.2947
     23 O1        -41.2798   23.1320   68.1388 O.3     1  <0>        -0.3932
     24 O2        -31.1009   26.7711   62.4666 O.3     1  <0>        -0.2952
     25 O3        -33.2334   28.1405   62.6446 O.2     1  <0>        -0.2737
     26 O4        -34.9507   28.4871   67.4682 O.2     1  <0>        -0.2755
     27 O5        -38.4809   25.2914   66.5067 O.2     1  <0>        -0.2735
     28 H1        -35.6717   21.3110   67.2154 H       1  <0>         0.0230
     29 H2        -34.1967   22.1168   67.8491 H       1  <0>         0.0230
     30 H3        -35.7017   23.0654   67.5998 H       1  <0>         0.0230
     31 H4        -36.8113   29.4374   65.8761 H       1  <0>         0.0233
     32 H5        -38.3298   30.3668   66.1150 H       1  <0>         0.0233
     33 H6        -37.2565   30.0242   67.5144 H       1  <0>         0.0233
     34 H7        -40.0824   27.6704   67.9523 H       1  <0>         0.0233
     35 H8        -39.1406   28.9998   68.7085 H       1  <0>         0.0233
     36 H9        -40.2137   29.3423   67.3092 H       1  <0>         0.0233
     37 H10       -38.4407   25.4932   72.0284 H       1  <0>         0.0281
     38 H11       -37.2183   24.6709   71.0408 H       1  <0>         0.0281
     39 H12       -39.0187   23.1383   70.9534 H       1  <0>         0.0284
     40 H13       -40.2418   24.4285   70.9235 H       1  <0>         0.0284
     41 H14       -39.1467   26.8885   70.2045 H       1  <0>         0.0465
     42 H15       -37.3951   26.8237   69.9890 H       1  <0>         0.0465
     43 H16       -34.0421   21.7064   65.4677 H       1  <0>         0.0263
     44 H17       -35.5732   22.6716   65.2141 H       1  <0>         0.0263
     45 H18       -32.7630   23.5255   65.4315 H       1  <0>         0.0265
     46 H19       -34.1788   24.3041   64.6336 H       1  <0>         0.0265
     47 H20       -34.9977   24.9732   66.8846 H       1  <0>         0.0265
     48 H21       -33.4624   24.3292   67.5811 H       1  <0>         0.0265
     49 H22       -32.9194   26.5695   67.3434 H       1  <0>         0.0273
     50 H23       -32.3563   25.9112   65.7503 H       1  <0>         0.0273
     51 H24       -41.1379   25.0181   68.9088 H       1  <0>         0.0576
     52 H25       -40.3209   24.7326   67.3089 H       1  <0>         0.0576
     53 H26       -34.0087   29.1803   64.8870 H       1  <0>         0.0366
     54 H27       -32.5392   28.6464   65.7632 H       1  <0>         0.0366
     55 H28       -38.7069   23.2411   68.6840 H       1  <0>         0.0523
     56 H29       -38.7867   27.9508   65.8689 H       1  <0>         0.0318
     57 H30       -34.5607   26.6564   64.7766 H       1  <0>         0.0399
     58 H31       -37.1404   27.6564   68.4043 H       1  <0>         0.0597
     59 H32       -36.4409   26.2673   65.8548 H       1  <0>         0.1495
     60 H33       -31.0528   27.0508   64.5717 H       1  <0>         0.1822
     61 H34       -42.1059   23.3365   67.7167 H       1  <0>         0.2095
     62 H35       -31.7045   27.0495   61.7878 H       1  <0>         0.2414
@<TRIPOS>BOND
     1     1     7    1
     2     2    14    1
     3     3    14    1
     4     4     5    1
     5     4     6    1
     6     5    13    1
     7     6    22    1
     8     7     8    1
     9     8     9    1
    10     9    10    1
    11    10    15    1
    12    11    13    1
    13    11    23    1
    14    12    15    1
    15    12    17    1
    16    13    22    1
    17    14    16    1
    18    15    18    1
    19    16    19    1
    20    16    20    1
    21    17    21   am
    22    17    25    2
    23    18    20   am
    24    18    26    2
    25    19    22   am
    26    19    27    2
    27    21    24    1
    28     1    28    1
    29     1    29    1
    30     1    30    1
    31     2    31    1
    32     2    32    1
    33     2    33    1
    34     3    34    1
    35     3    35    1
    36     3    36    1
    37     4    37    1
    38     4    38    1
    39     5    39    1
    40     5    40    1
    41     6    41    1
    42     6    42    1
    43     7    43    1
    44     7    44    1
    45     8    45    1
    46     8    46    1
    47     9    47    1
    48     9    48    1
    49    10    49    1
    50    10    50    1
    51    11    51    1
    52    11    52    1
    53    12    53    1
    54    12    54    1
    55    13    55    1
    56    14    56    1
    57    15    57    1
    58    16    58    1
    59    20    59    1
    60    21    60    1
    61    23    61    1
    62    24    62    1
@<TRIPOS>SUBSTRUCTURE
     1 <0>         1 TEMP              0 ****  ****    0 ROOT

