
##########                                Name:        BB2_501_1LRU
##########                    Molecular_Weight:             385.504
##########                DOCK_Rotatable_Bonds:                  16
##########                       Formal_Charge:         0.000500247
##########                     HBond_Acceptors:                   8
##########                        HBond_Donors:                   4
##########                         Heavy_Atoms:                  27
##########                            HA_RMSDs:               1.327
##########                            HA_RMSDh:               1.327
##########                            HA_RMSDm:               1.293
##########                          Grid_Score:          -54.086163
##########                     Grid_vdw_energy:          -51.669289
##########                      Grid_es_energy:           -2.416873
##########           Internal_energy_repulsive:           23.033989

@<TRIPOS>MOLECULE
BB2_501_1LRU
 62 62 1 0 0
SMALL
USER_CHARGES


@<TRIPOS>ATOM
      1 C1        -35.3320   22.1937   66.9092 C.3     1  <0>        -0.0653
      2 C2        -37.5026   29.9461   67.1493 C.3     1  <0>        -0.0605
      3 C3        -39.5027   28.6862   67.8238 C.3     1  <0>        -0.0605
      4 C4        -37.7571   24.7862   70.7838 C.3     1  <0>        -0.0354
      5 C5        -38.9088   23.9599   70.3610 C.3     1  <0>        -0.0307
      6 C6        -37.9001   26.0283   69.9823 C.3     1  <0>         0.0152
      7 C7        -34.9849   22.9498   65.6534 C.3     1  <0>        -0.0559
      8 C8        -33.6939   23.7701   65.6150 C.3     1  <0>        -0.0533
      9 C9        -33.6252   24.7215   66.7719 C.3     1  <0>        -0.0524
     10 C10       -33.0242   26.0886   66.3590 C.3     1  <0>        -0.0415
     11 C11       -40.4985   24.5894   68.3962 C.3     1  <0>         0.0628
     12 C12       -33.3843   28.2874   65.0604 C.3     1  <0>         0.0370
     13 C13       -39.0656   24.2433   68.8552 C.3     1  <0>         0.0492
     14 C14       -38.2467   28.6258   67.0161 C.3     1  <0>        -0.0197
     15 C15       -34.0334   27.0593   65.7222 C.3     1  <0>         0.0438
     16 C16       -37.3683   27.4433   67.4959 C.3     1  <0>         0.1019
     17 C17       -33.0031   27.9194   63.6309 C.2     1  <0>         0.2362
     18 C18       -35.0247   27.4705   66.8087 C.2     1  <0>         0.2172
     19 C19       -38.1836   26.1441   67.5032 C.2     1  <0>         0.2365
     20 N1        -36.2881   27.1667   66.5597 N.am    1  <0>        -0.3035
     21 N2        -31.8443   27.3490   63.3720 N.am    1  <0>        -0.1975
     22 N3        -38.3290   25.5031   68.6798 N.am    1  <0>        -0.2947
     23 O1        -41.5221   23.6827   68.7953 O.3     1  <0>        -0.3932
     24 O2        -31.6086   26.9529   62.0262 O.3     1  <0>        -0.2952
     25 O3        -33.7609   28.1411   62.6670 O.2     1  <0>        -0.2737
     26 O4        -34.6498   27.9869   67.8576 O.2     1  <0>        -0.2755
     27 O5        -38.6752   25.7181   66.4562 O.2     1  <0>        -0.2735
     28 H1        -36.2844   21.6621   66.7664 H       1  <0>         0.0230
     29 H2        -34.5365   21.4672   67.1313 H       1  <0>         0.0230
     30 H3        -35.4284   22.8998   67.7472 H       1  <0>         0.0230
     31 H4        -36.5768   29.9073   66.5566 H       1  <0>         0.0233
     32 H5        -38.1393   30.7643   66.7816 H       1  <0>         0.0233
     33 H6        -37.2539   30.1215   68.2064 H       1  <0>         0.0233
     34 H7        -40.0452   27.7338   67.7311 H       1  <0>         0.0233
     35 H8        -39.2512   28.8635   68.8799 H       1  <0>         0.0233
     36 H9        -40.1365   29.5063   67.4550 H       1  <0>         0.0233
     37 H10       -37.7894   24.9984   71.8626 H       1  <0>         0.0281
     38 H11       -36.8024   24.2813   70.5752 H       1  <0>         0.0281
     39 H12       -38.7175   22.8923   70.5442 H       1  <0>         0.0284
     40 H13       -39.8188   24.2389   70.9124 H       1  <0>         0.0284
     41 H14       -38.6419   26.7158   70.4149 H       1  <0>         0.0465
     42 H15       -36.9542   26.5854   69.9116 H       1  <0>         0.0465
     43 H16       -34.9011   22.2004   64.8525 H       1  <0>         0.0263
     44 H17       -35.8084   23.6578   65.4791 H       1  <0>         0.0263
     45 H18       -32.8342   23.0856   65.6641 H       1  <0>         0.0265
     46 H19       -33.6638   24.3450   64.6776 H       1  <0>         0.0265
     47 H20       -34.6433   24.8852   67.1545 H       1  <0>         0.0265
     48 H21       -32.9910   24.2795   67.5545 H       1  <0>         0.0265
     49 H22       -32.6204   26.5669   67.2635 H       1  <0>         0.0273
     50 H23       -32.2281   25.8992   65.6238 H       1  <0>         0.0273
     51 H24       -40.7493   25.5729   68.8203 H       1  <0>         0.0576
     52 H25       -40.4930   24.6130   67.2966 H       1  <0>         0.0576
     53 H26       -34.0955   29.1264   65.0526 H       1  <0>         0.0366
     54 H27       -32.4855   28.5822   65.6220 H       1  <0>         0.0366
     55 H28       -38.7425   23.3518   68.2978 H       1  <0>         0.0523
     56 H29       -38.4905   28.4618   65.9560 H       1  <0>         0.0318
     57 H30       -34.5427   26.5410   64.8963 H       1  <0>         0.0399
     58 H31       -36.9943   27.7304   68.4897 H       1  <0>         0.0597
     59 H32       -36.5111   26.7273   65.6896 H       1  <0>         0.1495
     60 H33       -31.1621   27.2012   64.0880 H       1  <0>         0.1822
     61 H34       -42.3269   23.8907   68.3354 H       1  <0>         0.2095
     62 H35       -32.4254   26.9743   61.5416 H       1  <0>         0.2414
@<TRIPOS>BOND
     1     1     7    1
     2     2    14    1
     3     3    14    1
     4     4     5    1
     5     4     6    1
     6     5    13    1
     7     6    22    1
     8     7     8    1
     9     8     9    1
    10     9    10    1
    11    10    15    1
    12    11    13    1
    13    11    23    1
    14    12    15    1
    15    12    17    1
    16    13    22    1
    17    14    16    1
    18    15    18    1
    19    16    19    1
    20    16    20    1
    21    17    21   am
    22    17    25    2
    23    18    20   am
    24    18    26    2
    25    19    22   am
    26    19    27    2
    27    21    24    1
    28     1    28    1
    29     1    29    1
    30     1    30    1
    31     2    31    1
    32     2    32    1
    33     2    33    1
    34     3    34    1
    35     3    35    1
    36     3    36    1
    37     4    37    1
    38     4    38    1
    39     5    39    1
    40     5    40    1
    41     6    41    1
    42     6    42    1
    43     7    43    1
    44     7    44    1
    45     8    45    1
    46     8    46    1
    47     9    47    1
    48     9    48    1
    49    10    49    1
    50    10    50    1
    51    11    51    1
    52    11    52    1
    53    12    53    1
    54    12    54    1
    55    13    55    1
    56    14    56    1
    57    15    57    1
    58    16    58    1
    59    20    59    1
    60    21    60    1
    61    23    61    1
    62    24    62    1
@<TRIPOS>SUBSTRUCTURE
     1 <0>         1 TEMP              0 ****  ****    0 ROOT

