
##########                                Name:        BB2_501_1LRU
##########                    Molecular_Weight:             385.504
##########                DOCK_Rotatable_Bonds:                  16
##########                       Formal_Charge:         0.000500247
##########                     HBond_Acceptors:                   8
##########                        HBond_Donors:                   4
##########                         Heavy_Atoms:                  27
##########                            HA_RMSDs:               1.376
##########                            HA_RMSDh:               1.376
##########                            HA_RMSDm:               1.322
##########                          Grid_Score:          -52.202805
##########                     Grid_vdw_energy:          -49.298046
##########                      Grid_es_energy:           -2.904758
##########           Internal_energy_repulsive:           25.373215

@<TRIPOS>MOLECULE
BB2_501_1LRU
 62 62 1 0 0
SMALL
USER_CHARGES


@<TRIPOS>ATOM
      1 C1        -35.3582   21.9085   67.1714 C.3     1  <0>        -0.0653
      2 C2        -37.0554   29.8381   66.3735 C.3     1  <0>        -0.0605
      3 C3        -38.9435   29.5002   67.9108 C.3     1  <0>        -0.0605
      4 C4        -37.6807   24.5561   70.4410 C.3     1  <0>        -0.0354
      5 C5        -38.9600   23.9087   70.0774 C.3     1  <0>        -0.0307
      6 C6        -37.7800   25.9047   69.8270 C.3     1  <0>         0.0152
      7 C7        -35.2376   22.6241   65.8513 C.3     1  <0>        -0.0559
      8 C8        -34.2063   23.7453   65.7075 C.3     1  <0>        -0.0533
      9 C9        -34.0613   24.5118   66.9879 C.3     1  <0>        -0.0524
     10 C10       -33.2277   25.8036   66.7951 C.3     1  <0>        -0.0415
     11 C11       -40.6952   24.9506   68.4382 C.3     1  <0>         0.0628
     12 C12       -33.0224   28.0158   65.4858 C.3     1  <0>         0.0370
     13 C13       -39.2650   24.4106   68.6536 C.3     1  <0>         0.0492
     14 C14       -38.0861   28.8401   66.8799 C.3     1  <0>        -0.0197
     15 C15       -33.9568   26.9214   66.0301 C.3     1  <0>         0.0438
     16 C16       -37.3980   27.5922   67.4874 C.3     1  <0>         0.1019
     17 C17       -32.8399   27.7931   63.9887 C.2     1  <0>         0.2362
     18 C18       -35.0135   27.5053   66.9654 C.2     1  <0>         0.2172
     19 C19       -38.3463   26.3874   67.4425 C.2     1  <0>         0.2365
     20 N1        -36.2610   27.1656   66.6843 N.am    1  <0>        -0.3035
     21 N2        -31.8548   27.0438   63.5377 N.am    1  <0>        -0.1975
     22 N3        -38.4191   25.6070   68.5389 N.am    1  <0>        -0.2947
     23 O1        -41.7574   24.0396   68.7043 O.3     1  <0>        -0.3932
     24 O2        -31.8136   26.8110   62.1350 O.3     1  <0>        -0.2952
     25 O3        -33.6034   28.3035   63.1467 O.2     1  <0>        -0.2737
     26 O4        -34.7035   28.1859   67.9390 O.2     1  <0>        -0.2755
     27 O5        -39.0052   26.1583   66.4263 O.2     1  <0>        -0.2735
     28 H1        -36.1405   21.1383   67.1014 H       1  <0>         0.0230
     29 H2        -34.3975   21.4337   67.4199 H       1  <0>         0.0230
     30 H3        -35.6243   22.6310   67.9569 H       1  <0>         0.0230
     31 H4        -36.4212   29.3574   65.6140 H       1  <0>         0.0233
     32 H5        -37.5699   30.7022   65.9279 H       1  <0>         0.0233
     33 H6        -36.4297   30.1763   67.2127 H       1  <0>         0.0233
     34 H7        -39.6910   28.7830   68.2807 H       1  <0>         0.0233
     35 H8        -38.3151   29.8390   68.7478 H       1  <0>         0.0233
     36 H9        -39.4553   30.3648   67.4630 H       1  <0>         0.0233
     37 H10       -37.5585   24.6196   71.5323 H       1  <0>         0.0281
     38 H11       -36.8205   23.9967   70.0447 H       1  <0>         0.0281
     39 H12       -38.8683   22.8128   70.0988 H       1  <0>         0.0284
     40 H13       -39.7599   24.1939   70.7766 H       1  <0>         0.0284
     41 H14       -38.3827   26.5931   70.4377 H       1  <0>         0.0465
     42 H15       -36.7934   26.3742   69.6997 H       1  <0>         0.0465
     43 H16       -34.9718   21.8597   65.1064 H       1  <0>         0.0263
     44 H17       -36.2198   23.0778   65.6528 H       1  <0>         0.0263
     45 H18       -33.2339   23.3042   65.4433 H       1  <0>         0.0265
     46 H19       -34.5351   24.4333   64.9146 H       1  <0>         0.0265
     47 H20       -35.0630   24.7893   67.3479 H       1  <0>         0.0265
     48 H21       -33.5552   23.8725   67.7261 H       1  <0>         0.0265
     49 H22       -32.9688   26.1901   67.7919 H       1  <0>         0.0273
     50 H23       -32.3234   25.5401   66.2269 H       1  <0>         0.0273
     51 H24       -40.8252   25.8103   69.1121 H       1  <0>         0.0576
     52 H25       -40.7768   25.2488   67.3826 H       1  <0>         0.0576
     53 H26       -33.4650   29.0069   65.6642 H       1  <0>         0.0366
     54 H27       -32.0477   27.9601   65.9927 H       1  <0>         0.0366
     55 H28       -39.1132   23.5778   67.9511 H       1  <0>         0.0523
     56 H29       -38.7056   28.5100   66.0330 H       1  <0>         0.0318
     57 H30       -34.4194   26.4854   65.1323 H       1  <0>         0.0399
     58 H31       -37.1027   27.8784   68.5077 H       1  <0>         0.0597
     59 H32       -36.4305   26.5900   65.8843 H       1  <0>         0.1495
     60 H33       -31.1678   26.6568   64.1528 H       1  <0>         0.1822
     61 H34       -42.5902   24.4859   68.6056 H       1  <0>         0.2095
     62 H35       -32.3807   27.4323   61.6936 H       1  <0>         0.2414
@<TRIPOS>BOND
     1     1     7    1
     2     2    14    1
     3     3    14    1
     4     4     5    1
     5     4     6    1
     6     5    13    1
     7     6    22    1
     8     7     8    1
     9     8     9    1
    10     9    10    1
    11    10    15    1
    12    11    13    1
    13    11    23    1
    14    12    15    1
    15    12    17    1
    16    13    22    1
    17    14    16    1
    18    15    18    1
    19    16    19    1
    20    16    20    1
    21    17    21   am
    22    17    25    2
    23    18    20   am
    24    18    26    2
    25    19    22   am
    26    19    27    2
    27    21    24    1
    28     1    28    1
    29     1    29    1
    30     1    30    1
    31     2    31    1
    32     2    32    1
    33     2    33    1
    34     3    34    1
    35     3    35    1
    36     3    36    1
    37     4    37    1
    38     4    38    1
    39     5    39    1
    40     5    40    1
    41     6    41    1
    42     6    42    1
    43     7    43    1
    44     7    44    1
    45     8    45    1
    46     8    46    1
    47     9    47    1
    48     9    48    1
    49    10    49    1
    50    10    50    1
    51    11    51    1
    52    11    52    1
    53    12    53    1
    54    12    54    1
    55    13    55    1
    56    14    56    1
    57    15    57    1
    58    16    58    1
    59    20    59    1
    60    21    60    1
    61    23    61    1
    62    24    62    1
@<TRIPOS>SUBSTRUCTURE
     1 <0>         1 TEMP              0 ****  ****    0 ROOT

