
##########                                Name:        BB2_501_1LRU
##########                    Molecular_Weight:             385.504
##########                DOCK_Rotatable_Bonds:                  16
##########                       Formal_Charge:         0.000500247
##########                     HBond_Acceptors:                   8
##########                        HBond_Donors:                   4
##########                         Heavy_Atoms:                  27
##########                            HA_RMSDs:               1.380
##########                            HA_RMSDh:               1.380
##########                            HA_RMSDm:               1.330
##########                          Grid_Score:          -54.146294
##########                     Grid_vdw_energy:          -51.877018
##########                      Grid_es_energy:           -2.269277
##########           Internal_energy_repulsive:           25.339827

@<TRIPOS>MOLECULE
BB2_501_1LRU
 62 62 1 0 0
SMALL
USER_CHARGES


@<TRIPOS>ATOM
      1 C1        -34.7169   22.1819   67.0120 C.3     1  <0>        -0.0653
      2 C2        -37.4347   30.0458   67.0004 C.3     1  <0>        -0.0605
      3 C3        -39.4296   28.8887   67.8513 C.3     1  <0>        -0.0605
      4 C4        -37.7916   24.9437   70.7946 C.3     1  <0>        -0.0354
      5 C5        -38.9402   24.1161   70.3658 C.3     1  <0>        -0.0307
      6 C6        -37.9204   26.1773   69.9778 C.3     1  <0>         0.0152
      7 C7        -34.3669   22.6933   65.6389 C.3     1  <0>        -0.0559
      8 C8        -33.4499   23.9117   65.5132 C.3     1  <0>        -0.0533
      9 C9        -33.6392   24.8501   66.6672 C.3     1  <0>        -0.0524
     10 C10       -33.0367   26.2480   66.3781 C.3     1  <0>        -0.0415
     11 C11       -40.5022   24.7286   68.3738 C.3     1  <0>         0.0628
     12 C12       -33.3219   28.4425   65.0538 C.3     1  <0>         0.0370
     13 C13       -39.0765   24.3835   68.8551 C.3     1  <0>         0.0492
     14 C14       -38.2217   28.7439   66.9831 C.3     1  <0>        -0.0197
     15 C15       -34.0110   27.2334   65.7101 C.3     1  <0>         0.0438
     16 C16       -37.3519   27.5635   67.4832 C.3     1  <0>         0.1019
     17 C17       -32.8566   28.0343   63.6606 C.2     1  <0>         0.2362
     18 C18       -35.0186   27.6737   66.7699 C.2     1  <0>         0.2172
     19 C19       -38.1712   26.2668   67.4941 C.2     1  <0>         0.2365
     20 N1        -36.2628   27.2749   66.5612 N.am    1  <0>        -0.3035
     21 N2        -31.6101   27.6627   63.4523 N.am    1  <0>        -0.1975
     22 N3        -38.3339   25.6391   68.6756 N.am    1  <0>        -0.2947
     23 O1        -41.4628   23.6797   68.4522 O.3     1  <0>        -0.3932
     24 O2        -31.2843   27.2075   62.1445 O.3     1  <0>        -0.2952
     25 O3        -33.6253   28.0370   62.6799 O.2     1  <0>        -0.2737
     26 O4        -34.6693   28.2975   67.7680 O.2     1  <0>        -0.2755
     27 O5        -38.6504   25.8307   66.4455 O.2     1  <0>        -0.2735
     28 H1        -35.3791   21.3084   66.9207 H       1  <0>         0.0230
     29 H2        -33.7969   21.8908   67.5401 H       1  <0>         0.0230
     30 H3        -35.2300   22.9734   67.5780 H       1  <0>         0.0230
     31 H4        -36.5440   29.9450   66.3627 H       1  <0>         0.0233
     32 H5        -38.0672   30.8615   66.6202 H       1  <0>         0.0233
     33 H6        -37.1238   30.2725   68.0310 H       1  <0>         0.0233
     34 H7        -40.0028   27.9499   67.8426 H       1  <0>         0.0233
     35 H8        -39.1159   29.1170   68.8806 H       1  <0>         0.0233
     36 H9        -40.0592   29.7061   67.4698 H       1  <0>         0.0233
     37 H10       -37.8373   25.1678   71.8705 H       1  <0>         0.0281
     38 H11       -36.8358   24.4338   70.6040 H       1  <0>         0.0281
     39 H12       -38.7545   23.0500   70.5632 H       1  <0>         0.0284
     40 H13       -39.8565   24.4037   70.9022 H       1  <0>         0.0284
     41 H14       -38.6657   26.8716   70.3931 H       1  <0>         0.0465
     42 H15       -36.9720   26.7309   69.9134 H       1  <0>         0.0465
     43 H16       -33.8592   21.8671   65.1195 H       1  <0>         0.0263
     44 H17       -35.3172   22.9684   65.1581 H       1  <0>         0.0263
     45 H18       -32.4040   23.5714   65.4977 H       1  <0>         0.0265
     46 H19       -33.6867   24.4421   64.5791 H       1  <0>         0.0265
     47 H20       -34.7169   24.9631   66.8564 H       1  <0>         0.0265
     48 H21       -33.1399   24.4270   67.5512 H       1  <0>         0.0265
     49 H22       -32.7203   26.6841   67.3372 H       1  <0>         0.0273
     50 H23       -32.1782   26.1127   65.7038 H       1  <0>         0.0273
     51 H24       -40.8683   25.5548   69.0010 H       1  <0>         0.0576
     52 H25       -40.4278   25.0256   67.3173 H       1  <0>         0.0576
     53 H26       -34.0302   29.2807   64.9798 H       1  <0>         0.0366
     54 H27       -32.4578   28.7534   65.6594 H       1  <0>         0.0366
     55 H28       -38.7489   23.4849   68.3117 H       1  <0>         0.0523
     56 H29       -38.5275   28.5284   65.9487 H       1  <0>         0.0318
     57 H30       -34.5114   26.7184   64.8768 H       1  <0>         0.0399
     58 H31       -36.9876   27.8588   68.4782 H       1  <0>         0.0597
     59 H32       -36.4641   26.7517   65.7331 H       1  <0>         0.1495
     60 H33       -30.9248   27.6987   64.1796 H       1  <0>         0.1822
     61 H34       -42.2788   23.9670   68.0596 H       1  <0>         0.2095
     62 H35       -32.0788   27.1258   61.6301 H       1  <0>         0.2414
@<TRIPOS>BOND
     1     1     7    1
     2     2    14    1
     3     3    14    1
     4     4     5    1
     5     4     6    1
     6     5    13    1
     7     6    22    1
     8     7     8    1
     9     8     9    1
    10     9    10    1
    11    10    15    1
    12    11    13    1
    13    11    23    1
    14    12    15    1
    15    12    17    1
    16    13    22    1
    17    14    16    1
    18    15    18    1
    19    16    19    1
    20    16    20    1
    21    17    21   am
    22    17    25    2
    23    18    20   am
    24    18    26    2
    25    19    22   am
    26    19    27    2
    27    21    24    1
    28     1    28    1
    29     1    29    1
    30     1    30    1
    31     2    31    1
    32     2    32    1
    33     2    33    1
    34     3    34    1
    35     3    35    1
    36     3    36    1
    37     4    37    1
    38     4    38    1
    39     5    39    1
    40     5    40    1
    41     6    41    1
    42     6    42    1
    43     7    43    1
    44     7    44    1
    45     8    45    1
    46     8    46    1
    47     9    47    1
    48     9    48    1
    49    10    49    1
    50    10    50    1
    51    11    51    1
    52    11    52    1
    53    12    53    1
    54    12    54    1
    55    13    55    1
    56    14    56    1
    57    15    57    1
    58    16    58    1
    59    20    59    1
    60    21    60    1
    61    23    61    1
    62    24    62    1
@<TRIPOS>SUBSTRUCTURE
     1 <0>         1 TEMP              0 ****  ****    0 ROOT

