
##########                                Name:        BB2_501_1LRU
##########                    Molecular_Weight:             385.504
##########                DOCK_Rotatable_Bonds:                  16
##########                       Formal_Charge:         0.000500247
##########                     HBond_Acceptors:                   8
##########                        HBond_Donors:                   4
##########                         Heavy_Atoms:                  27
##########                            HA_RMSDs:               1.141
##########                            HA_RMSDh:               1.141
##########                            HA_RMSDm:               1.118
##########                          Grid_Score:          -51.054089
##########                     Grid_vdw_energy:          -49.602036
##########                      Grid_es_energy:           -1.452052
##########           Internal_energy_repulsive:           32.110588

@<TRIPOS>MOLECULE
BB2_501_1LRU
 62 62 1 0 0
SMALL
USER_CHARGES


@<TRIPOS>ATOM
      1 C1        -35.1880   22.1540   67.1605 C.3     1  <0>        -0.0653
      2 C2        -37.5406   29.5241   66.9558 C.3     1  <0>        -0.0605
      3 C3        -39.3915   28.2712   67.9790 C.3     1  <0>        -0.0605
      4 C4        -37.7913   24.7143   71.0391 C.3     1  <0>        -0.0354
      5 C5        -38.8055   23.7422   70.5758 C.3     1  <0>        -0.0307
      6 C6        -37.9444   25.8576   70.1038 C.3     1  <0>         0.0152
      7 C7        -34.6222   22.3486   65.7781 C.3     1  <0>        -0.0559
      8 C8        -33.7099   23.5479   65.5126 C.3     1  <0>        -0.0533
      9 C9        -33.6695   24.4670   66.6966 C.3     1  <0>        -0.0524
     10 C10       -32.9520   25.8002   66.3672 C.3     1  <0>        -0.0415
     11 C11       -40.1927   24.0284   68.3902 C.3     1  <0>         0.0628
     12 C12       -33.1302   28.1550   65.3310 C.3     1  <0>         0.0370
     13 C13       -38.8017   23.8701   69.0409 C.3     1  <0>         0.0492
     14 C14       -38.2241   28.1683   67.0516 C.3     1  <0>        -0.0197
     15 C15       -33.8757   26.8979   65.8120 C.3     1  <0>         0.0438
     16 C16       -37.2400   27.0860   67.5617 C.3     1  <0>         0.1019
     17 C17       -32.5812   27.8850   63.9346 C.2     1  <0>         0.2362
     18 C18       -34.8939   27.2355   66.8990 C.2     1  <0>         0.2172
     19 C19       -37.9323   25.7181   67.6098 C.2     1  <0>         0.2365
     20 N1        -36.1403   26.8826   66.6295 N.am    1  <0>        -0.3035
     21 N2        -31.5554   27.0768   63.7624 N.am    1  <0>        -0.1975
     22 N3        -38.1632   25.1757   68.8218 N.am    1  <0>        -0.2947
     23 O1        -40.8461   22.8232   68.0035 O.3     1  <0>        -0.3932
     24 O2        -31.1676   26.8061   62.4208 O.3     1  <0>        -0.2952
     25 O3        -33.0737   28.4105   62.9179 O.2     1  <0>        -0.2737
     26 O4        -34.5518   27.7399   67.9648 O.2     1  <0>        -0.2755
     27 O5        -38.2530   25.1515   66.5631 O.2     1  <0>        -0.2735
     28 H1        -35.8169   21.2517   67.1762 H       1  <0>         0.0230
     29 H2        -34.3645   22.0393   67.8807 H       1  <0>         0.0230
     30 H3        -35.7956   23.0291   67.4343 H       1  <0>         0.0230
     31 H4        -36.6801   29.4542   66.2741 H       1  <0>         0.0233
     32 H5        -38.2539   30.2677   66.5707 H       1  <0>         0.0233
     33 H6        -37.1937   29.8309   67.9536 H       1  <0>         0.0233
     34 H7        -39.8898   27.2933   68.0522 H       1  <0>         0.0233
     35 H8        -39.0420   28.5799   68.9753 H       1  <0>         0.0233
     36 H9        -40.1021   29.0166   67.5924 H       1  <0>         0.0233
     37 H10       -37.9736   25.0197   72.0800 H       1  <0>         0.0281
     38 H11       -36.7775   24.2901   70.9924 H       1  <0>         0.0281
     39 H12       -38.5446   22.7202   70.8877 H       1  <0>         0.0284
     40 H13       -39.7970   23.9782   70.9895 H       1  <0>         0.0284
     41 H14       -38.7912   26.5044   70.3773 H       1  <0>         0.0465
     42 H15       -37.0498   26.4974   70.0837 H       1  <0>         0.0465
     43 H16       -34.0272   21.4503   65.5563 H       1  <0>         0.0263
     44 H17       -35.4832   22.4573   65.1022 H       1  <0>         0.0263
     45 H18       -32.6921   23.1841   65.3082 H       1  <0>         0.0265
     46 H19       -34.0928   24.1024   64.6431 H       1  <0>         0.0265
     47 H20       -34.7015   24.6892   67.0056 H       1  <0>         0.0265
     48 H21       -33.1272   23.9670   67.5126 H       1  <0>         0.0265
     49 H22       -32.4989   26.1780   67.2957 H       1  <0>         0.0273
     50 H23       -32.1827   25.5912   65.6093 H       1  <0>         0.0273
     51 H24       -40.8412   24.5315   69.1226 H       1  <0>         0.0576
     52 H25       -40.0620   24.6353   67.4822 H       1  <0>         0.0576
     53 H26       -33.8215   29.0100   65.3011 H       1  <0>         0.0366
     54 H27       -32.3031   28.3843   66.0190 H       1  <0>         0.0366
     55 H28       -38.3357   22.9681   68.6177 H       1  <0>         0.0523
     56 H29       -38.5669   27.8727   66.0491 H       1  <0>         0.0318
     57 H30       -34.3724   26.5124   64.9094 H       1  <0>         0.0399
     58 H31       -36.8926   27.4350   68.5453 H       1  <0>         0.0597
     59 H32       -36.3357   26.4571   65.7459 H       1  <0>         0.1495
     60 H33       -31.0718   26.6723   64.5387 H       1  <0>         0.1822
     61 H34       -41.7578   23.0053   67.8083 H       1  <0>         0.2095
     62 H35       -31.5395   27.4633   61.8444 H       1  <0>         0.2414
@<TRIPOS>BOND
     1     1     7    1
     2     2    14    1
     3     3    14    1
     4     4     5    1
     5     4     6    1
     6     5    13    1
     7     6    22    1
     8     7     8    1
     9     8     9    1
    10     9    10    1
    11    10    15    1
    12    11    13    1
    13    11    23    1
    14    12    15    1
    15    12    17    1
    16    13    22    1
    17    14    16    1
    18    15    18    1
    19    16    19    1
    20    16    20    1
    21    17    21   am
    22    17    25    2
    23    18    20   am
    24    18    26    2
    25    19    22   am
    26    19    27    2
    27    21    24    1
    28     1    28    1
    29     1    29    1
    30     1    30    1
    31     2    31    1
    32     2    32    1
    33     2    33    1
    34     3    34    1
    35     3    35    1
    36     3    36    1
    37     4    37    1
    38     4    38    1
    39     5    39    1
    40     5    40    1
    41     6    41    1
    42     6    42    1
    43     7    43    1
    44     7    44    1
    45     8    45    1
    46     8    46    1
    47     9    47    1
    48     9    48    1
    49    10    49    1
    50    10    50    1
    51    11    51    1
    52    11    52    1
    53    12    53    1
    54    12    54    1
    55    13    55    1
    56    14    56    1
    57    15    57    1
    58    16    58    1
    59    20    59    1
    60    21    60    1
    61    23    61    1
    62    24    62    1
@<TRIPOS>SUBSTRUCTURE
     1 <0>         1 TEMP              0 ****  ****    0 ROOT

