
##########                                Name:        BB2_501_1LRU
##########                    Molecular_Weight:             385.504
##########                DOCK_Rotatable_Bonds:                  16
##########                       Formal_Charge:         0.000500247
##########                     HBond_Acceptors:                   8
##########                        HBond_Donors:                   4
##########                         Heavy_Atoms:                  27
##########                            HA_RMSDs:               1.195
##########                            HA_RMSDh:               1.195
##########                            HA_RMSDm:               1.151
##########                          Grid_Score:          -53.146271
##########                     Grid_vdw_energy:          -50.977032
##########                      Grid_es_energy:           -2.169238
##########           Internal_energy_repulsive:           26.054268

@<TRIPOS>MOLECULE
BB2_501_1LRU
 62 62 1 0 0
SMALL
USER_CHARGES


@<TRIPOS>ATOM
      1 C1        -35.9410   22.4028   66.7939 C.3     1  <0>        -0.0653
      2 C2        -37.5725   29.4463   66.1321 C.3     1  <0>        -0.0605
      3 C3        -38.8857   29.1590   68.1900 C.3     1  <0>        -0.0605
      4 C4        -37.9913   24.8146   70.8533 C.3     1  <0>        -0.0354
      5 C5        -39.0396   23.8983   70.3538 C.3     1  <0>        -0.0307
      6 C6        -38.1084   26.0015   69.9685 C.3     1  <0>         0.0152
      7 C7        -35.3125   23.0416   65.5830 C.3     1  <0>        -0.0559
      8 C8        -33.8894   23.5933   65.6906 C.3     1  <0>        -0.0533
      9 C9        -33.7926   24.6273   66.7721 C.3     1  <0>        -0.0524
     10 C10       -33.0649   25.9053   66.2842 C.3     1  <0>        -0.0415
     11 C11       -40.4238   24.3250   68.1892 C.3     1  <0>         0.0628
     12 C12       -33.2675   28.2749   65.2869 C.3     1  <0>         0.0370
     13 C13       -39.0367   24.0917   68.8258 C.3     1  <0>         0.0492
     14 C14       -38.3155   28.4471   67.0061 C.3     1  <0>        -0.0197
     15 C15       -34.0007   27.0065   65.7569 C.3     1  <0>         0.0438
     16 C16       -37.3711   27.3132   67.4778 C.3     1  <0>         0.1019
     17 C17       -32.6564   27.9988   63.9177 C.2     1  <0>         0.2362
     18 C18       -35.0079   27.3217   66.8608 C.2     1  <0>         0.2172
     19 C19       -38.1097   25.9688   67.4708 C.2     1  <0>         0.2365
     20 N1        -36.2744   27.1084   66.5425 N.am    1  <0>        -0.3035
     21 N2        -31.4170   27.5653   63.8121 N.am    1  <0>        -0.1975
     22 N3        -38.3547   25.3831   68.6596 N.am    1  <0>        -0.2947
     23 O1        -41.4212   23.3513   68.4824 O.3     1  <0>        -0.3932
     24 O2        -30.9573   27.2428   62.5051 O.3     1  <0>        -0.2952
     25 O3        -33.2955   28.1704   62.8620 O.2     1  <0>        -0.2737
     26 O4        -34.6453   27.6848   67.9761 O.2     1  <0>        -0.2755
     27 O5        -38.4531   25.4589   66.4024 O.2     1  <0>        -0.2735
     28 H1        -36.9571   22.0632   66.5441 H       1  <0>         0.0230
     29 H2        -35.3342   21.5418   67.1105 H       1  <0>         0.0230
     30 H3        -35.9906   23.1371   67.6114 H       1  <0>         0.0230
     31 H4        -37.1505   28.9276   65.2587 H       1  <0>         0.0233
     32 H5        -38.2700   30.2266   65.7933 H       1  <0>         0.0233
     33 H6        -36.7598   29.9076   66.7124 H       1  <0>         0.0233
     34 H7        -39.4244   28.4410   68.8259 H       1  <0>         0.0233
     35 H8        -38.0712   29.6206   68.7674 H       1  <0>         0.0233
     36 H9        -39.5813   29.9396   67.8483 H       1  <0>         0.0233
     37 H10       -38.1595   25.0810   71.9072 H       1  <0>         0.0281
     38 H11       -36.9927   24.3586   70.7836 H       1  <0>         0.0281
     39 H12       -38.8127   22.8555   70.6204 H       1  <0>         0.0284
     40 H13       -40.0211   24.1499   70.7820 H       1  <0>         0.0284
     41 H14       -38.9317   26.6643   70.2735 H       1  <0>         0.0465
     42 H15       -37.1926   26.6108   69.9714 H       1  <0>         0.0465
     43 H16       -35.2879   22.2683   64.8010 H       1  <0>         0.0263
     44 H17       -35.9557   23.8913   65.3107 H       1  <0>         0.0263
     45 H18       -33.2026   22.7666   65.9245 H       1  <0>         0.0265
     46 H19       -33.6112   24.0533   64.7308 H       1  <0>         0.0265
     47 H20       -34.8094   24.9006   67.0906 H       1  <0>         0.0265
     48 H21       -33.2305   24.2024   67.6167 H       1  <0>         0.0265
     49 H22       -32.5024   26.3188   67.1343 H       1  <0>         0.0273
     50 H23       -32.3884   25.6170   65.4661 H       1  <0>         0.0273
     51 H24       -40.7939   25.2933   68.5571 H       1  <0>         0.0576
     52 H25       -40.2856   24.3333   67.0980 H       1  <0>         0.0576
     53 H26       -33.9778   29.1118   65.2164 H       1  <0>         0.0366
     54 H27       -32.4747   28.5346   66.0037 H       1  <0>         0.0366
     55 H28       -38.6033   23.1934   68.3621 H       1  <0>         0.0523
     56 H29       -39.1254   27.9935   66.4159 H       1  <0>         0.0318
     57 H30       -34.5060   26.6323   64.8542 H       1  <0>         0.0399
     58 H31       -37.0170   27.6122   68.4753 H       1  <0>         0.0597
     59 H32       -36.4878   26.7923   65.6181 H       1  <0>         0.1495
     60 H33       -30.8267   27.4674   64.6133 H       1  <0>         0.1822
     61 H34       -42.2244   23.5726   68.0259 H       1  <0>         0.2095
     62 H35       -31.5214   27.6534   61.8602 H       1  <0>         0.2414
@<TRIPOS>BOND
     1     1     7    1
     2     2    14    1
     3     3    14    1
     4     4     5    1
     5     4     6    1
     6     5    13    1
     7     6    22    1
     8     7     8    1
     9     8     9    1
    10     9    10    1
    11    10    15    1
    12    11    13    1
    13    11    23    1
    14    12    15    1
    15    12    17    1
    16    13    22    1
    17    14    16    1
    18    15    18    1
    19    16    19    1
    20    16    20    1
    21    17    21   am
    22    17    25    2
    23    18    20   am
    24    18    26    2
    25    19    22   am
    26    19    27    2
    27    21    24    1
    28     1    28    1
    29     1    29    1
    30     1    30    1
    31     2    31    1
    32     2    32    1
    33     2    33    1
    34     3    34    1
    35     3    35    1
    36     3    36    1
    37     4    37    1
    38     4    38    1
    39     5    39    1
    40     5    40    1
    41     6    41    1
    42     6    42    1
    43     7    43    1
    44     7    44    1
    45     8    45    1
    46     8    46    1
    47     9    47    1
    48     9    48    1
    49    10    49    1
    50    10    50    1
    51    11    51    1
    52    11    52    1
    53    12    53    1
    54    12    54    1
    55    13    55    1
    56    14    56    1
    57    15    57    1
    58    16    58    1
    59    20    59    1
    60    21    60    1
    61    23    61    1
    62    24    62    1
@<TRIPOS>SUBSTRUCTURE
     1 <0>         1 TEMP              0 ****  ****    0 ROOT

