
##########                                Name:        BB2_501_1LRU
##########                    Molecular_Weight:             385.504
##########                DOCK_Rotatable_Bonds:                  16
##########                       Formal_Charge:         0.000500247
##########                     HBond_Acceptors:                   8
##########                        HBond_Donors:                   4
##########                         Heavy_Atoms:                  27
##########                            HA_RMSDs:               1.387
##########                            HA_RMSDh:               1.387
##########                            HA_RMSDm:               1.346
##########                          Grid_Score:          -53.898865
##########                     Grid_vdw_energy:          -51.315910
##########                      Grid_es_energy:           -2.582952
##########           Internal_energy_repulsive:           24.497150

@<TRIPOS>MOLECULE
BB2_501_1LRU
 62 62 1 0 0
SMALL
USER_CHARGES


@<TRIPOS>ATOM
      1 C1        -34.7605   21.9685   67.0280 C.3     1  <0>        -0.0653
      2 C2        -37.3899   29.8628   67.1777 C.3     1  <0>        -0.0605
      3 C3        -39.3857   28.5354   67.7231 C.3     1  <0>        -0.0605
      4 C4        -37.7722   24.8675   70.8611 C.3     1  <0>        -0.0354
      5 C5        -38.8942   24.0126   70.4159 C.3     1  <0>        -0.0307
      6 C6        -37.8739   26.0661   69.9900 C.3     1  <0>         0.0152
      7 C7        -34.6796   22.7015   65.7145 C.3     1  <0>        -0.0559
      8 C8        -33.6049   23.7748   65.5295 C.3     1  <0>        -0.0533
      9 C9        -33.6234   24.7569   66.6623 C.3     1  <0>        -0.0524
     10 C10       -32.9541   26.0989   66.2727 C.3     1  <0>        -0.0415
     11 C11       -40.3706   24.5296   68.3336 C.3     1  <0>         0.0628
     12 C12       -33.1842   28.3143   64.9730 C.3     1  <0>         0.0370
     13 C13       -38.9651   24.2177   68.8911 C.3     1  <0>         0.0492
     14 C14       -38.0912   28.5278   66.9761 C.3     1  <0>        -0.0197
     15 C15       -33.9030   27.1131   65.6116 C.3     1  <0>         0.0438
     16 C16       -37.2056   27.3561   67.4688 C.3     1  <0>         0.1019
     17 C17       -32.6629   27.8919   63.6040 C.2     1  <0>         0.2362
     18 C18       -34.9062   27.5631   66.6715 C.2     1  <0>         0.2172
     19 C19       -38.0146   26.0532   67.4961 C.2     1  <0>         0.2365
     20 N1        -36.1271   27.0722   66.5329 N.am    1  <0>        -0.3035
     21 N2        -31.4552   27.3821   63.4748 N.am    1  <0>        -0.1975
     22 N3        -38.2249   25.4720   68.6937 N.am    1  <0>        -0.2947
     23 O1        -41.4645   23.9152   69.0079 O.3     1  <0>        -0.3932
     24 O2        -31.0841   26.9272   62.1791 O.3     1  <0>        -0.2952
     25 O3        -33.3483   28.0111   62.5703 O.2     1  <0>        -0.2737
     26 O4        -34.5699   28.2775   67.6116 O.2     1  <0>        -0.2755
     27 O5        -38.4432   25.5708   66.4459 O.2     1  <0>        -0.2735
     28 H1        -35.5819   21.2377   66.9908 H       1  <0>         0.0230
     29 H2        -33.8116   21.4441   67.2140 H       1  <0>         0.0230
     30 H3        -34.9468   22.6884   67.8385 H       1  <0>         0.0230
     31 H4        -36.4360   29.8628   66.6298 H       1  <0>         0.0233
     32 H5        -38.0298   30.6737   66.7997 H       1  <0>         0.0233
     33 H6        -37.1969   30.0171   68.2496 H       1  <0>         0.0233
     34 H7        -39.8975   27.5721   67.5809 H       1  <0>         0.0233
     35 H8        -39.1898   28.6916   68.7942 H       1  <0>         0.0233
     36 H9        -40.0227   29.3483   67.3443 H       1  <0>         0.0233
     37 H10       -37.8675   25.1343   71.9239 H       1  <0>         0.0281
     38 H11       -36.8049   24.3594   70.7338 H       1  <0>         0.0281
     39 H12       -38.7093   22.9571   70.6644 H       1  <0>         0.0284
     40 H13       -39.8356   24.3128   70.8992 H       1  <0>         0.0284
     41 H14       -38.6423   26.7694   70.3435 H       1  <0>         0.0465
     42 H15       -36.9279   26.6255   69.9451 H       1  <0>         0.0465
     43 H16       -34.4934   21.9389   64.9438 H       1  <0>         0.0263
     44 H17       -35.6483   23.2048   65.5792 H       1  <0>         0.0263
     45 H18       -32.6183   23.2898   65.4935 H       1  <0>         0.0265
     46 H19       -33.7947   24.3117   64.5884 H       1  <0>         0.0265
     47 H20       -34.6691   24.9527   66.9420 H       1  <0>         0.0265
     48 H21       -33.0766   24.3241   67.5130 H       1  <0>         0.0265
     49 H22       -32.5568   26.5569   67.1906 H       1  <0>         0.0273
     50 H23       -32.1458   25.8785   65.5599 H       1  <0>         0.0273
     51 H24       -40.5149   25.6181   68.4006 H       1  <0>         0.0576
     52 H25       -40.3930   24.1825   67.2901 H       1  <0>         0.0576
     53 H26       -33.8867   29.1534   64.8619 H       1  <0>         0.0366
     54 H27       -32.3450   28.6290   65.6108 H       1  <0>         0.0366
     55 H28       -38.6068   23.3011   68.3996 H       1  <0>         0.0523
     56 H29       -38.2795   28.3851   65.9018 H       1  <0>         0.0318
     57 H30       -34.4104   26.6190   64.7699 H       1  <0>         0.0399
     58 H31       -36.8299   27.6582   68.4575 H       1  <0>         0.0597
     59 H32       -36.3175   26.4795   65.7503 H       1  <0>         0.1495
     60 H33       -30.8284   27.3179   64.2514 H       1  <0>         0.1822
     61 H34       -42.2183   23.8881   68.4304 H       1  <0>         0.2095
     62 H35       -31.8316   26.9868   61.5959 H       1  <0>         0.2414
@<TRIPOS>BOND
     1     1     7    1
     2     2    14    1
     3     3    14    1
     4     4     5    1
     5     4     6    1
     6     5    13    1
     7     6    22    1
     8     7     8    1
     9     8     9    1
    10     9    10    1
    11    10    15    1
    12    11    13    1
    13    11    23    1
    14    12    15    1
    15    12    17    1
    16    13    22    1
    17    14    16    1
    18    15    18    1
    19    16    19    1
    20    16    20    1
    21    17    21   am
    22    17    25    2
    23    18    20   am
    24    18    26    2
    25    19    22   am
    26    19    27    2
    27    21    24    1
    28     1    28    1
    29     1    29    1
    30     1    30    1
    31     2    31    1
    32     2    32    1
    33     2    33    1
    34     3    34    1
    35     3    35    1
    36     3    36    1
    37     4    37    1
    38     4    38    1
    39     5    39    1
    40     5    40    1
    41     6    41    1
    42     6    42    1
    43     7    43    1
    44     7    44    1
    45     8    45    1
    46     8    46    1
    47     9    47    1
    48     9    48    1
    49    10    49    1
    50    10    50    1
    51    11    51    1
    52    11    52    1
    53    12    53    1
    54    12    54    1
    55    13    55    1
    56    14    56    1
    57    15    57    1
    58    16    58    1
    59    20    59    1
    60    21    60    1
    61    23    61    1
    62    24    62    1
@<TRIPOS>SUBSTRUCTURE
     1 <0>         1 TEMP              0 ****  ****    0 ROOT

