
##########                                Name:        BB2_501_1LRU
##########                    Molecular_Weight:             385.504
##########                DOCK_Rotatable_Bonds:                  16
##########                       Formal_Charge:         0.000500247
##########                     HBond_Acceptors:                   8
##########                        HBond_Donors:                   4
##########                         Heavy_Atoms:                  27
##########                            HA_RMSDs:               1.331
##########                            HA_RMSDh:               1.331
##########                            HA_RMSDm:               1.263
##########                          Grid_Score:          -54.623543
##########                     Grid_vdw_energy:          -51.985947
##########                      Grid_es_energy:           -2.637595
##########           Internal_energy_repulsive:           29.743929

@<TRIPOS>MOLECULE
BB2_501_1LRU
 62 62 1 0 0
SMALL
USER_CHARGES


@<TRIPOS>ATOM
      1 C1        -35.3338   22.0638   67.1445 C.3     1  <0>        -0.0653
      2 C2        -37.6542   29.6393   66.1986 C.3     1  <0>        -0.0605
      3 C3        -39.5220   28.9199   67.6256 C.3     1  <0>        -0.0605
      4 C4        -38.6801   25.8199   71.1860 C.3     1  <0>        -0.0354
      5 C5        -39.6444   24.7755   70.7766 C.3     1  <0>        -0.0307
      6 C6        -38.6525   26.7490   70.0277 C.3     1  <0>         0.0152
      7 C7        -35.1114   22.7387   65.8163 C.3     1  <0>        -0.0559
      8 C8        -34.0284   23.8137   65.7032 C.3     1  <0>        -0.0533
      9 C9        -34.0208   24.7004   66.9123 C.3     1  <0>        -0.0524
     10 C10       -33.2886   26.0387   66.6410 C.3     1  <0>        -0.0415
     11 C11       -40.6759   24.6127   68.3907 C.3     1  <0>         0.0628
     12 C12       -33.2653   28.1876   65.2154 C.3     1  <0>         0.0370
     13 C13       -39.4049   24.5880   69.2668 C.3     1  <0>         0.0492
     14 C14       -38.4507   28.4434   66.6988 C.3     1  <0>        -0.0197
     15 C15       -34.1089   27.0584   65.8325 C.3     1  <0>         0.0438
     16 C16       -37.5326   27.4325   67.4304 C.3     1  <0>         0.1019
     17 C17       -32.8069   27.7450   63.8304 C.2     1  <0>         0.2362
     18 C18       -35.1922   27.6126   66.7553 C.2     1  <0>         0.2172
     19 C19       -38.2691   26.1042   67.6451 C.2     1  <0>         0.2365
     20 N1        -36.3870   27.0626   66.6116 N.am    1  <0>        -0.3035
     21 N2        -31.6518   27.1323   63.6708 N.am    1  <0>        -0.1975
     22 N3        -38.6979   25.8206   68.8909 N.am    1  <0>        -0.2947
     23 O1        -41.4481   23.4160   68.3703 O.3     1  <0>        -0.3932
     24 O2        -31.3445   26.6693   62.3613 O.3     1  <0>        -0.2952
     25 O3        -33.4962   27.9431   62.8115 O.2     1  <0>        -0.2737
     26 O4        -34.9389   28.4614   67.6054 O.2     1  <0>        -0.2755
     27 O5        -38.4468   25.3368   66.6970 O.2     1  <0>        -0.2735
     28 H1        -36.1422   21.3238   67.0496 H       1  <0>         0.0230
     29 H2        -34.4087   21.5578   67.4578 H       1  <0>         0.0230
     30 H3        -35.6126   22.8169   67.8961 H       1  <0>         0.0230
     31 H4        -36.8638   29.2943   65.5157 H       1  <0>         0.0233
     32 H5        -38.3248   30.3288   65.6647 H       1  <0>         0.0233
     33 H6        -37.1983   30.1596   67.0538 H       1  <0>         0.0233
     34 H7        -40.1014   28.0590   67.9906 H       1  <0>         0.0233
     35 H8        -39.0634   29.4413   68.4788 H       1  <0>         0.0233
     36 H9        -40.1898   29.6104   67.0896 H       1  <0>         0.0233
     37 H10       -39.0071   26.3313   72.1033 H       1  <0>         0.0281
     38 H11       -37.6854   25.3935   71.3826 H       1  <0>         0.0281
     39 H12       -39.4674   23.8380   71.3241 H       1  <0>         0.0284
     40 H13       -40.6786   25.0925   70.9763 H       1  <0>         0.0284
     41 H14       -39.5091   27.4393   70.0315 H       1  <0>         0.0465
     42 H15       -37.7445   27.3698   70.0178 H       1  <0>         0.0465
     43 H16       -34.8368   21.9448   65.1061 H       1  <0>         0.0263
     44 H17       -36.0617   23.2257   65.5521 H       1  <0>         0.0263
     45 H18       -33.0475   23.3242   65.6131 H       1  <0>         0.0265
     46 H19       -34.2259   24.4272   64.8117 H       1  <0>         0.0265
     47 H20       -35.0609   24.9188   67.1957 H       1  <0>         0.0265
     48 H21       -33.5054   24.1762   67.7305 H       1  <0>         0.0265
     49 H22       -33.0469   26.4943   67.6126 H       1  <0>         0.0273
     50 H23       -32.3743   25.8140   66.0721 H       1  <0>         0.0273
     51 H24       -41.3238   25.4134   68.7767 H       1  <0>         0.0576
     52 H25       -40.3571   24.8138   67.3574 H       1  <0>         0.0576
     53 H26       -33.8701   29.1027   65.1334 H       1  <0>         0.0366
     54 H27       -32.3906   28.3896   65.8510 H       1  <0>         0.0366
     55 H28       -38.9105   23.6179   69.1106 H       1  <0>         0.0523
     56 H29       -38.9020   27.9322   65.8358 H       1  <0>         0.0318
     57 H30       -34.5509   26.5431   64.9669 H       1  <0>         0.0399
     58 H31       -37.2328   27.9227   68.3684 H       1  <0>         0.0597
     59 H32       -36.5085   26.3612   65.9092 H       1  <0>         0.1495
     60 H33       -31.0203   26.9988   64.4346 H       1  <0>         0.1822
     61 H34       -42.2447   23.5609   67.8734 H       1  <0>         0.2095
     62 H35       -31.7302   27.2541   61.7196 H       1  <0>         0.2414
@<TRIPOS>BOND
     1     1     7    1
     2     2    14    1
     3     3    14    1
     4     4     5    1
     5     4     6    1
     6     5    13    1
     7     6    22    1
     8     7     8    1
     9     8     9    1
    10     9    10    1
    11    10    15    1
    12    11    13    1
    13    11    23    1
    14    12    15    1
    15    12    17    1
    16    13    22    1
    17    14    16    1
    18    15    18    1
    19    16    19    1
    20    16    20    1
    21    17    21   am
    22    17    25    2
    23    18    20   am
    24    18    26    2
    25    19    22   am
    26    19    27    2
    27    21    24    1
    28     1    28    1
    29     1    29    1
    30     1    30    1
    31     2    31    1
    32     2    32    1
    33     2    33    1
    34     3    34    1
    35     3    35    1
    36     3    36    1
    37     4    37    1
    38     4    38    1
    39     5    39    1
    40     5    40    1
    41     6    41    1
    42     6    42    1
    43     7    43    1
    44     7    44    1
    45     8    45    1
    46     8    46    1
    47     9    47    1
    48     9    48    1
    49    10    49    1
    50    10    50    1
    51    11    51    1
    52    11    52    1
    53    12    53    1
    54    12    54    1
    55    13    55    1
    56    14    56    1
    57    15    57    1
    58    16    58    1
    59    20    59    1
    60    21    60    1
    61    23    61    1
    62    24    62    1
@<TRIPOS>SUBSTRUCTURE
     1 <0>         1 TEMP              0 ****  ****    0 ROOT

