
##########                                Name:        BB2_501_1LRU
##########                    Molecular_Weight:             385.504
##########                DOCK_Rotatable_Bonds:                  16
##########                       Formal_Charge:         0.000500247
##########                     HBond_Acceptors:                   8
##########                        HBond_Donors:                   4
##########                         Heavy_Atoms:                  27
##########                            HA_RMSDs:               1.340
##########                            HA_RMSDh:               1.340
##########                            HA_RMSDm:               1.280
##########                          Grid_Score:          -53.768784
##########                     Grid_vdw_energy:          -51.303612
##########                      Grid_es_energy:           -2.465172
##########           Internal_energy_repulsive:           33.564690

@<TRIPOS>MOLECULE
BB2_501_1LRU
 62 62 1 0 0
SMALL
USER_CHARGES


@<TRIPOS>ATOM
      1 C1        -35.7728   22.7862   67.3379 C.3     1  <0>        -0.0653
      2 C2        -37.2844   29.8983   66.8999 C.3     1  <0>        -0.0605
      3 C3        -39.2862   28.7239   67.7098 C.3     1  <0>        -0.0605
      4 C4        -37.8900   25.0529   70.8672 C.3     1  <0>        -0.0354
      5 C5        -38.9947   24.1839   70.4061 C.3     1  <0>        -0.0307
      6 C6        -37.9538   26.2210   69.9524 C.3     1  <0>         0.0152
      7 C7        -35.0901   22.8812   65.9985 C.3     1  <0>        -0.0559
      8 C8        -33.7928   23.6843   65.8831 C.3     1  <0>        -0.0533
      9 C9        -33.7729   24.8196   66.8623 C.3     1  <0>        -0.0524
     10 C10       -32.9708   26.0311   66.3239 C.3     1  <0>        -0.0415
     11 C11       -40.3841   24.6306   68.2489 C.3     1  <0>         0.0628
     12 C12       -33.0210   28.2942   65.0883 C.3     1  <0>         0.0370
     13 C13       -39.0031   24.3369   68.8735 C.3     1  <0>         0.0492
     14 C14       -38.0524   28.5852   66.8779 C.3     1  <0>        -0.0197
     15 C15       -33.8323   27.1160   65.6551 C.3     1  <0>         0.0438
     16 C16       -37.1808   27.4239   67.4180 C.3     1  <0>         0.1019
     17 C17       -32.4377   27.8750   63.7436 C.2     1  <0>         0.2362
     18 C18       -34.8571   27.5888   66.6839 C.2     1  <0>         0.2172
     19 C19       -37.9928   26.1231   67.4567 C.2     1  <0>         0.2365
     20 N1        -36.0814   27.1167   66.5143 N.am    1  <0>        -0.3035
     21 N2        -31.3360   27.1551   63.6861 N.am    1  <0>        -0.1975
     22 N3        -38.2529   25.5833   68.6639 N.am    1  <0>        -0.2947
     23 O1        -41.3506   23.5886   68.3433 O.3     1  <0>        -0.3932
     24 O2        -30.9133   26.7276   62.3969 O.3     1  <0>        -0.2952
     25 O3        -32.9718   28.1925   62.6636 O.2     1  <0>        -0.2737
     26 O4        -34.5354   28.3036   67.6288 O.2     1  <0>        -0.2755
     27 O5        -38.3794   25.6055   66.4069 O.2     1  <0>        -0.2735
     28 H1        -36.6839   22.1771   67.2432 H       1  <0>         0.0230
     29 H2        -35.0922   22.3171   68.0636 H       1  <0>         0.0230
     30 H3        -36.0407   23.7950   67.6850 H       1  <0>         0.0230
     31 H4        -36.3747   29.8019   66.2889 H       1  <0>         0.0233
     32 H5        -37.9172   30.6999   66.4912 H       1  <0>         0.0233
     33 H6        -37.0060   30.1427   67.9357 H       1  <0>         0.0233
     34 H7        -39.8458   27.7770   67.6975 H       1  <0>         0.0233
     35 H8        -39.0050   28.9700   68.7443 H       1  <0>         0.0233
     36 H9        -39.9161   29.5272   67.2999 H       1  <0>         0.0233
     37 H10       -38.0279   25.3557   71.9156 H       1  <0>         0.0281
     38 H11       -36.9194   24.5401   70.7968 H       1  <0>         0.0281
     39 H12       -38.8222   23.1374   70.6977 H       1  <0>         0.0284
     40 H13       -39.9544   24.5011   70.8401 H       1  <0>         0.0284
     41 H14       -38.7345   26.9365   70.2501 H       1  <0>         0.0465
     42 H15       -37.0055   26.7780   69.9271 H       1  <0>         0.0465
     43 H16       -34.8456   21.8510   65.7003 H       1  <0>         0.0263
     44 H17       -35.8105   23.3545   65.3152 H       1  <0>         0.0263
     45 H18       -32.9415   23.0192   66.0901 H       1  <0>         0.0265
     46 H19       -33.7137   24.0904   64.8638 H       1  <0>         0.0265
     47 H20       -34.8080   25.1389   67.0529 H       1  <0>         0.0265
     48 H21       -33.3038   24.4727   67.7947 H       1  <0>         0.0265
     49 H22       -32.4460   26.4928   67.1732 H       1  <0>         0.0273
     50 H23       -32.2571   25.6575   65.5748 H       1  <0>         0.0273
     51 H24       -40.7976   25.5082   68.7673 H       1  <0>         0.0576
     52 H25       -40.2233   24.8316   67.1795 H       1  <0>         0.0576
     53 H26       -33.6758   29.1679   64.9547 H       1  <0>         0.0366
     54 H27       -32.2085   28.5556   65.7822 H       1  <0>         0.0366
     55 H28       -38.6269   23.4039   68.4286 H       1  <0>         0.0523
     56 H29       -38.3257   28.3519   65.8383 H       1  <0>         0.0318
     57 H30       -34.3266   26.6765   64.7761 H       1  <0>         0.0399
     58 H31       -36.8275   27.7483   68.4079 H       1  <0>         0.0597
     59 H32       -36.2596   26.5222   65.7302 H       1  <0>         0.1495
     60 H33       -30.8207   26.9202   64.5103 H       1  <0>         0.1822
     61 H34       -42.1519   23.8591   67.9107 H       1  <0>         0.2095
     62 H35       -31.4634   27.1278   61.7338 H       1  <0>         0.2414
@<TRIPOS>BOND
     1     1     7    1
     2     2    14    1
     3     3    14    1
     4     4     5    1
     5     4     6    1
     6     5    13    1
     7     6    22    1
     8     7     8    1
     9     8     9    1
    10     9    10    1
    11    10    15    1
    12    11    13    1
    13    11    23    1
    14    12    15    1
    15    12    17    1
    16    13    22    1
    17    14    16    1
    18    15    18    1
    19    16    19    1
    20    16    20    1
    21    17    21   am
    22    17    25    2
    23    18    20   am
    24    18    26    2
    25    19    22   am
    26    19    27    2
    27    21    24    1
    28     1    28    1
    29     1    29    1
    30     1    30    1
    31     2    31    1
    32     2    32    1
    33     2    33    1
    34     3    34    1
    35     3    35    1
    36     3    36    1
    37     4    37    1
    38     4    38    1
    39     5    39    1
    40     5    40    1
    41     6    41    1
    42     6    42    1
    43     7    43    1
    44     7    44    1
    45     8    45    1
    46     8    46    1
    47     9    47    1
    48     9    48    1
    49    10    49    1
    50    10    50    1
    51    11    51    1
    52    11    52    1
    53    12    53    1
    54    12    54    1
    55    13    55    1
    56    14    56    1
    57    15    57    1
    58    16    58    1
    59    20    59    1
    60    21    60    1
    61    23    61    1
    62    24    62    1
@<TRIPOS>SUBSTRUCTURE
     1 <0>         1 TEMP              0 ****  ****    0 ROOT

