
##########                                Name:               *****
##########                    Molecular_Weight:              321.44
##########                DOCK_Rotatable_Bonds:                   8
##########                       Formal_Charge:              1.0002
##########                     HBond_Acceptors:                   5
##########                        HBond_Donors:                   3
##########                         Heavy_Atoms:                  23
##########                            HA_RMSDs:               0.386
##########                            HA_RMSDh:               0.386
##########                            HA_RMSDm:               0.386
##########                          Grid_Score:          -54.609173
##########                     Grid_vdw_energy:          -46.820282
##########                      Grid_es_energy:           -7.788891
##########           Internal_energy_repulsive:           37.845642

@<TRIPOS>MOLECULE
*****
 52 53 1 0 0
SMALL
USER_CHARGES


@<TRIPOS>ATOM
      1 C1         12.4054   19.1276   22.9111 C.3     1  <0>        -0.0372
      2 C2          7.9369   19.1490   22.3330 C.ar    1  <0>         0.0903
      3 N1          8.4420   22.7522   22.9970 N.am    1  <0>        -0.3058
      4 O1          6.5903   19.1543   22.1453 O.3     1  <0>        -0.3587
      5 C3          8.6488   17.9630   22.1196 C.ar    1  <0>        -0.0168
      6 N2          7.6282   24.7091   25.5270 N.4     1  <0>         0.2383
      7 O2         10.6485   21.4172   23.3230 O.3     1  <0>        -0.3468
      8 C4         10.0354   17.9741   22.2859 C.ar    1  <0>        -0.0507
      9 O3          6.5241   21.5596   22.9815 O.2     1  <0>        -0.2700
     10 C5         10.6918   19.1374   22.6805 C.ar    1  <0>        -0.0193
     11 C6          9.9752   20.3098   22.9137 C.ar    1  <0>         0.0933
     12 C7         10.8678   21.3267   24.7374 C.3     1  <0>         0.0431
     13 C8          8.5835   20.3215   22.7509 C.ar    1  <0>         0.0967
     14 C9          7.7513   21.6104   22.9450 C.2     1  <0>         0.2493
     15 C10         7.8117   24.0791   23.1473 C.3     1  <0>         0.0548
     16 C11         6.9015   24.1262   24.3799 C.3     1  <0>        -0.0048
     17 C12         5.7190   25.0511   24.1037 C.3     1  <0>        -0.0034
     18 C13         6.2297   26.3991   24.5851 C.3     1  <0>        -0.0074
     19 C14         7.0046   26.0125   25.8356 C.3     1  <0>        -0.0314
     20 C15         7.4947   23.8072   26.6793 C.3     1  <0>        -0.0345
     21 C16         8.8418   23.1892   27.0231 C.3     1  <0>        -0.0245
     22 C17         8.0211   16.6432   21.6367 C.3     1  <0>        -0.0281
     23 C18         6.8665   16.1766   22.5271 C.3     1  <0>        -0.0612
     24 H1         12.9044   19.3958   21.9681 H       1  <0>         0.0278
     25 H2         12.6748   19.8576   23.6887 H       1  <0>         0.0278
     26 H3         12.7275   18.1233   23.2235 H       1  <0>         0.0278
     27 H4          9.4387   22.7062   22.9306 H       1  <0>         0.1492
     28 H5          6.2382   19.9995   22.3984 H       1  <0>         0.2174
     29 H6          8.5985   24.8308   25.3175 H       1  <0>         0.2037
     30 H7         10.6034   17.0731   22.1072 H       1  <0>         0.0625
     31 H8         11.4126   22.2179   25.0823 H       1  <0>         0.0529
     32 H9          9.8992   21.2661   25.2553 H       1  <0>         0.0529
     33 H10        11.4596   20.4265   24.9597 H       1  <0>         0.0529
     34 H11         8.6009   24.8373   23.2585 H       1  <0>         0.0518
     35 H12         7.2091   24.2903   22.2516 H       1  <0>         0.0518
     36 H13         6.5725   23.1001   24.6008 H       1  <0>         0.0867
     37 H14         5.4570   25.0713   23.0356 H       1  <0>         0.0322
     38 H15         4.8180   24.7367   24.6509 H       1  <0>         0.0322
     39 H16         6.8698   26.8898   23.8371 H       1  <0>         0.0319
     40 H17         5.4089   27.0972   24.8065 H       1  <0>         0.0319
     41 H18         7.7705   26.7666   26.0695 H       1  <0>         0.0814
     42 H19         6.3319   25.9285   26.7019 H       1  <0>         0.0814
     43 H20         7.1266   24.3777   27.5448 H       1  <0>         0.0812
     44 H21         6.7818   23.0068   26.4318 H       1  <0>         0.0812
     45 H22         8.7278   22.5170   27.8864 H       1  <0>         0.0281
     46 H23         9.2138   22.6175   26.1601 H       1  <0>         0.0281
     47 H24         9.5580   23.9864   27.2714 H       1  <0>         0.0281
     48 H25         7.6347   16.7948   20.6181 H       1  <0>         0.0311
     49 H26         8.7997   15.8661   21.6422 H       1  <0>         0.0311
     50 H27         6.4588   15.2331   22.1352 H       1  <0>         0.0233
     51 H28         7.2343   16.0195   23.5517 H       1  <0>         0.0233
     52 H29         6.0767   16.9423   22.5342 H       1  <0>         0.0233
@<TRIPOS>BOND
     1     5    22    1
     2    22    23    1
     3     5     8   ar
     4     2     5   ar
     5     2     4    1
     6     8    10   ar
     7     2    13   ar
     8     1    10    1
     9    10    11   ar
    10    11    13   ar
    11    13    14    1
    12     3    14   am
    13     3    15    1
    14     7    11    1
    15     9    14    2
    16    15    16    1
    17     7    12    1
    18    16    17    1
    19     6    16    1
    20    17    18    1
    21    18    19    1
    22     6    19    1
    23     6    20    1
    24    20    21    1
    25     1    24    1
    26     1    25    1
    27     1    26    1
    28     3    27    1
    29     4    28    1
    30     6    29    1
    31     8    30    1
    32    12    31    1
    33    12    32    1
    34    12    33    1
    35    15    34    1
    36    15    35    1
    37    16    36    1
    38    17    37    1
    39    17    38    1
    40    18    39    1
    41    18    40    1
    42    19    41    1
    43    19    42    1
    44    20    43    1
    45    20    44    1
    46    21    45    1
    47    21    46    1
    48    21    47    1
    49    22    48    1
    50    22    49    1
    51    23    50    1
    52    23    51    1
    53    23    52    1
@<TRIPOS>SUBSTRUCTURE
     1 <0>         1 TEMP              0 ****  ****    0 ROOT

