
##########                                Name:               *****
##########                    Molecular_Weight:              321.44
##########                DOCK_Rotatable_Bonds:                   8
##########                       Formal_Charge:              1.0002
##########                     HBond_Acceptors:                   5
##########                        HBond_Donors:                   3
##########                         Heavy_Atoms:                  23
##########                            HA_RMSDs:               0.309
##########                            HA_RMSDh:               0.309
##########                            HA_RMSDm:               0.309
##########                          Grid_Score:          -52.886490
##########                     Grid_vdw_energy:          -44.164318
##########                      Grid_es_energy:           -8.722171
##########           Internal_energy_repulsive:           27.559378

@<TRIPOS>MOLECULE
*****
 52 53 1 0 0
SMALL
USER_CHARGES


@<TRIPOS>ATOM
      1 C1         12.2796   19.1772   23.0278 C.3     1  <0>        -0.0372
      2 C2          7.8369   18.9362   22.3158 C.ar    1  <0>         0.0903
      3 N1          8.1059   22.5445   23.1170 N.am    1  <0>        -0.3058
      4 O1          6.4986   18.8625   22.0877 O.3     1  <0>        -0.3587
      5 C3          8.6252   17.7977   22.1124 C.ar    1  <0>        -0.0168
      6 N2          7.8866   24.1960   25.6661 N.4     1  <0>         0.2383
      7 O2         10.3760   21.3520   23.4088 O.3     1  <0>        -0.3468
      8 C4         10.0031   17.8903   22.3205 C.ar    1  <0>        -0.0507
      9 O3          6.2637   21.2620   22.8679 O.2     1  <0>        -0.2700
     10 C5         10.5760   19.0864   22.7459 C.ar    1  <0>        -0.0193
     11 C6          9.7833   20.2108   22.9688 C.ar    1  <0>         0.0933
     12 C7         10.5032   21.2845   24.8358 C.3     1  <0>         0.0431
     13 C8          8.3988   20.1406   22.7642 C.ar    1  <0>         0.0967
     14 C9          7.4848   21.3747   22.9457 C.2     1  <0>         0.2493
     15 C10         7.3947   23.8289   23.2751 C.3     1  <0>         0.0548
     16 C11         6.8062   23.9691   24.6838 C.3     1  <0>        -0.0048
     17 C12         5.9075   25.2017   24.7391 C.3     1  <0>        -0.0034
     18 C13         6.8693   26.2974   25.1680 C.3     1  <0>        -0.0074
     19 C14         7.7384   25.5718   26.1839 C.3     1  <0>        -0.0314
     20 C15         7.7376   23.2312   26.7644 C.3     1  <0>        -0.0345
     21 C16         9.0029   23.1948   27.6085 C.3     1  <0>        -0.0245
     22 C17         8.0931   16.4482   21.5981 C.3     1  <0>        -0.0281
     23 C18         7.0791   15.8101   22.5511 C.3     1  <0>        -0.0612
     24 H1         12.7890   19.4857   22.1029 H       1  <0>         0.0278
     25 H2         12.4813   19.9130   23.8202 H       1  <0>         0.0278
     26 H3         12.6525   18.1905   23.3401 H       1  <0>         0.0278
     27 H4          9.1056   22.5510   23.1394 H       1  <0>         0.1492
     28 H5          6.0555   19.5459   22.5768 H       1  <0>         0.2174
     29 H6          8.7874   24.0790   25.2479 H       1  <0>         0.2037
     30 H7         10.6297   17.0273   22.1502 H       1  <0>         0.0625
     31 H8         10.9821   22.2031   25.2055 H       1  <0>         0.0529
     32 H9          9.5057   21.1835   25.2883 H       1  <0>         0.0529
     33 H10        11.1193   20.4148   25.1080 H       1  <0>         0.0529
     34 H11         8.1036   24.6519   23.1020 H       1  <0>         0.0518
     35 H12         6.5764   23.8751   22.5415 H       1  <0>         0.0518
     36 H13         6.2494   23.0489   24.9144 H       1  <0>         0.0867
     37 H14         5.4509   25.4184   23.7620 H       1  <0>         0.0322
     38 H15         5.0850   25.0756   25.4586 H       1  <0>         0.0322
     39 H16         7.4571   26.6855   24.3231 H       1  <0>         0.0319
     40 H17         6.3455   27.1572   25.6110 H       1  <0>         0.0319
     41 H18         8.7189   26.0611   26.2797 H       1  <0>         0.0814
     42 H19         7.2605   25.5672   27.1746 H       1  <0>         0.0814
     43 H20         6.8890   23.5310   27.3969 H       1  <0>         0.0812
     44 H21         7.5532   22.2311   26.3452 H       1  <0>         0.0812
     45 H22         8.8781   22.4695   28.4261 H       1  <0>         0.0281
     46 H23         9.8545   22.8954   26.9798 H       1  <0>         0.0281
     47 H24         9.1912   24.1933   28.0299 H       1  <0>         0.0281
     48 H25         7.6007   16.6158   20.6289 H       1  <0>         0.0311
     49 H26         8.9437   15.7600   21.4848 H       1  <0>         0.0311
     50 H27         6.7350   14.8524   22.1336 H       1  <0>         0.0233
     51 H28         7.5541   15.6347   23.5276 H       1  <0>         0.0233
     52 H29         6.2196   16.4850   22.6772 H       1  <0>         0.0233
@<TRIPOS>BOND
     1     5    22    1
     2    22    23    1
     3     5     8   ar
     4     2     5   ar
     5     2     4    1
     6     8    10   ar
     7     2    13   ar
     8     1    10    1
     9    10    11   ar
    10    11    13   ar
    11    13    14    1
    12     3    14   am
    13     3    15    1
    14     7    11    1
    15     9    14    2
    16    15    16    1
    17     7    12    1
    18    16    17    1
    19     6    16    1
    20    17    18    1
    21    18    19    1
    22     6    19    1
    23     6    20    1
    24    20    21    1
    25     1    24    1
    26     1    25    1
    27     1    26    1
    28     3    27    1
    29     4    28    1
    30     6    29    1
    31     8    30    1
    32    12    31    1
    33    12    32    1
    34    12    33    1
    35    15    34    1
    36    15    35    1
    37    16    36    1
    38    17    37    1
    39    17    38    1
    40    18    39    1
    41    18    40    1
    42    19    41    1
    43    19    42    1
    44    20    43    1
    45    20    44    1
    46    21    45    1
    47    21    46    1
    48    21    47    1
    49    22    48    1
    50    22    49    1
    51    23    50    1
    52    23    51    1
    53    23    52    1
@<TRIPOS>SUBSTRUCTURE
     1 <0>         1 TEMP              0 ****  ****    0 ROOT

