
##########                                Name:               *****
##########                    Molecular_Weight:              321.44
##########                DOCK_Rotatable_Bonds:                   8
##########                       Formal_Charge:              1.0002
##########                     HBond_Acceptors:                   5
##########                        HBond_Donors:                   3
##########                         Heavy_Atoms:                  23
##########                            HA_RMSDs:               0.335
##########                            HA_RMSDh:               0.335
##########                            HA_RMSDm:               0.335
##########                          Grid_Score:          -56.685135
##########                     Grid_vdw_energy:          -48.974182
##########                      Grid_es_energy:           -7.710951
##########           Internal_energy_repulsive:           26.290171

@<TRIPOS>MOLECULE
*****
 52 53 1 0 0
SMALL
USER_CHARGES


@<TRIPOS>ATOM
      1 C1         12.2774   19.1258   23.0456 C.3     1  <0>        -0.0372
      2 C2          7.8376   19.0380   22.2819 C.ar    1  <0>         0.0903
      3 N1          8.2080   22.6476   22.9472 N.am    1  <0>        -0.3058
      4 O1          6.5003   19.0106   22.0383 O.3     1  <0>        -0.3587
      5 C3          8.5904   17.8762   22.0762 C.ar    1  <0>        -0.0168
      6 N2          7.5794   24.4929   25.4906 N.4     1  <0>         0.2383
      7 O2         10.4420   21.3584   23.4266 O.3     1  <0>        -0.3468
      8 C4          9.9682   17.9214   22.3005 C.ar    1  <0>        -0.0507
      9 O3          6.3349   21.3865   22.9923 O.2     1  <0>        -0.2700
     10 C5         10.5751   19.0939   22.7439 C.ar    1  <0>        -0.0193
     11 C6          9.8172   20.2417   22.9689 C.ar    1  <0>         0.0933
     12 C7         10.4952   21.3025   24.8587 C.3     1  <0>         0.0431
     13 C8          8.4336   20.2190   22.7483 C.ar    1  <0>         0.0967
     14 C9          7.5586   21.4808   22.9316 C.2     1  <0>         0.2493
     15 C10         7.5326   23.9539   23.0822 C.3     1  <0>         0.0548
     16 C11         6.7212   24.0291   24.3807 C.3     1  <0>        -0.0048
     17 C12         5.6136   25.0684   24.2288 C.3     1  <0>        -0.0034
     18 C13         6.2812   26.3422   24.7199 C.3     1  <0>        -0.0074
     19 C14         7.1040   25.8326   25.8935 C.3     1  <0>        -0.0314
     20 C15         7.4449   23.5571   26.6155 C.3     1  <0>        -0.0345
     21 C16         8.8035   23.2959   27.2485 C.3     1  <0>        -0.0245
     22 C17         8.0202   16.5497   21.5429 C.3     1  <0>        -0.0281
     23 C18         7.1391   15.8302   22.5673 C.3     1  <0>        -0.0612
     24 H1         12.8071   19.4260   22.1295 H       1  <0>         0.0278
     25 H2         12.4940   19.8472   23.8473 H       1  <0>         0.0278
     26 H3         12.6141   18.1245   23.3524 H       1  <0>         0.0278
     27 H4          9.2043   22.6362   22.8631 H       1  <0>         0.1492
     28 H5          6.0825   19.7403   22.4804 H       1  <0>         0.2174
     29 H6          8.5393   24.5354   25.2134 H       1  <0>         0.2037
     30 H7         10.5679   17.0397   22.1288 H       1  <0>         0.0625
     31 H8         10.9992   22.2017   25.2428 H       1  <0>         0.0529
     32 H9          9.4729   21.2550   25.2619 H       1  <0>         0.0529
     33 H10        11.0543   20.4078   25.1700 H       1  <0>         0.0529
     34 H11         8.2932   24.7484   23.0913 H       1  <0>         0.0518
     35 H12         6.8523   24.0925   22.2290 H       1  <0>         0.0518
     36 H13         6.3143   23.0282   24.5875 H       1  <0>         0.0867
     37 H14         5.2789   25.1590   23.1848 H       1  <0>         0.0322
     38 H15         4.7286   24.8131   24.8302 H       1  <0>         0.0322
     39 H16         6.9093   26.8052   23.9446 H       1  <0>         0.0319
     40 H17         5.5472   27.1013   25.0282 H       1  <0>         0.0319
     41 H18         7.9518   26.5033   26.0969 H       1  <0>         0.0814
     42 H19         6.4901   25.7719   26.8042 H       1  <0>         0.0814
     43 H20         6.7718   23.9916   27.3694 H       1  <0>         0.0812
     44 H21         7.0279   22.6076   26.2486 H       1  <0>         0.0812
     45 H22         8.6887   22.5946   28.0882 H       1  <0>         0.0281
     46 H23         9.4801   22.8612   26.4979 H       1  <0>         0.0281
     47 H24         9.2244   24.2431   27.6169 H       1  <0>         0.0281
     48 H25         7.4113   16.7666   20.6528 H       1  <0>         0.0311
     49 H26         8.8610   15.8897   21.2836 H       1  <0>         0.0311
     50 H27         6.7613   14.8929   22.1327 H       1  <0>         0.0233
     51 H28         7.7316   15.6047   23.4662 H       1  <0>         0.0233
     52 H29         6.2912   16.4760   22.8394 H       1  <0>         0.0233
@<TRIPOS>BOND
     1     5    22    1
     2    22    23    1
     3     5     8   ar
     4     2     5   ar
     5     2     4    1
     6     8    10   ar
     7     2    13   ar
     8     1    10    1
     9    10    11   ar
    10    11    13   ar
    11    13    14    1
    12     3    14   am
    13     3    15    1
    14     7    11    1
    15     9    14    2
    16    15    16    1
    17     7    12    1
    18    16    17    1
    19     6    16    1
    20    17    18    1
    21    18    19    1
    22     6    19    1
    23     6    20    1
    24    20    21    1
    25     1    24    1
    26     1    25    1
    27     1    26    1
    28     3    27    1
    29     4    28    1
    30     6    29    1
    31     8    30    1
    32    12    31    1
    33    12    32    1
    34    12    33    1
    35    15    34    1
    36    15    35    1
    37    16    36    1
    38    17    37    1
    39    17    38    1
    40    18    39    1
    41    18    40    1
    42    19    41    1
    43    19    42    1
    44    20    43    1
    45    20    44    1
    46    21    45    1
    47    21    46    1
    48    21    47    1
    49    22    48    1
    50    22    49    1
    51    23    50    1
    52    23    51    1
    53    23    52    1
@<TRIPOS>SUBSTRUCTURE
     1 <0>         1 TEMP              0 ****  ****    0 ROOT

