
##########                                Name:               *****
##########                    Molecular_Weight:              321.44
##########                DOCK_Rotatable_Bonds:                   8
##########                       Formal_Charge:              1.0002
##########                     HBond_Acceptors:                   5
##########                        HBond_Donors:                   3
##########                         Heavy_Atoms:                  23
##########                            HA_RMSDs:               1.006
##########                            HA_RMSDh:               1.006
##########                            HA_RMSDm:               0.923
##########                          Grid_Score:          -51.945667
##########                     Grid_vdw_energy:          -47.242470
##########                      Grid_es_energy:           -4.703198
##########           Internal_energy_repulsive:           20.765779

@<TRIPOS>MOLECULE
*****
 52 53 1 0 0
SMALL
USER_CHARGES


@<TRIPOS>ATOM
      1 C1         12.0267   19.5400   23.8626 C.3     1  <0>        -0.0372
      2 C2          7.8196   19.2701   22.2719 C.ar    1  <0>         0.0903
      3 N1          7.8544   22.8709   22.9048 N.am    1  <0>        -0.3058
      4 O1          6.5550   19.1886   21.7794 O.3     1  <0>        -0.3587
      5 C3          8.6625   18.1575   22.1696 C.ar    1  <0>        -0.0168
      6 N2          6.7869   25.0291   25.2023 N.4     1  <0>         0.2383
      7 O2         10.0283   21.6596   23.9719 O.3     1  <0>        -0.3468
      8 C4          9.9694   18.2598   22.6514 C.ar    1  <0>        -0.0507
      9 O3          6.0695   21.4885   22.9669 O.2     1  <0>        -0.2700
     10 C5         10.4152   19.4387   23.2440 C.ar    1  <0>        -0.0193
     11 C6          9.5645   20.5361   23.3639 C.ar    1  <0>         0.0933
     12 C7          9.8952   21.5038   25.3914 C.3     1  <0>         0.0431
     13 C8          8.2498   20.4559   22.8854 C.ar    1  <0>         0.0967
     14 C9          7.2856   21.6633   22.9463 C.2     1  <0>         0.2493
     15 C10         7.0882   24.1331   22.9220 C.3     1  <0>         0.0548
     16 C11         6.1650   24.2068   24.1436 C.3     1  <0>        -0.0048
     17 C12         4.8665   24.9105   23.7580 C.3     1  <0>        -0.0034
     18 C13         5.1741   26.3679   24.0596 C.3     1  <0>        -0.0074
     19 C14         5.9804   26.2588   25.3449 C.3     1  <0>        -0.0314
     20 C15         6.7685   24.2720   26.4615 C.3     1  <0>        -0.0345
     21 C16         7.8504   24.7851   27.4002 C.3     1  <0>        -0.0245
     22 C17         8.2782   16.8311   21.4900 C.3     1  <0>        -0.0281
     23 C18         7.2930   16.0045   22.3205 C.3     1  <0>        -0.0612
     24 H1         12.7000   19.9083   23.0746 H       1  <0>         0.0278
     25 H2         12.0485   20.2329   24.7167 H       1  <0>         0.0278
     26 H3         12.3568   18.5432   24.1905 H       1  <0>         0.0278
     27 H4          8.8520   22.9231   22.8596 H       1  <0>         0.1492
     28 H5          6.0680   19.9662   22.0256 H       1  <0>         0.2174
     29 H6          7.7325   25.2603   24.9733 H       1  <0>         0.2037
     30 H7         10.6399   17.4176   22.5638 H       1  <0>         0.0625
     31 H8         10.2674   22.4073   25.8964 H       1  <0>         0.0529
     32 H9          8.8358   21.3520   25.6457 H       1  <0>         0.0529
     33 H10        10.4801   20.6324   25.7208 H       1  <0>         0.0529
     34 H11         7.7931   24.9768   22.9572 H       1  <0>         0.0518
     35 H12         6.4764   24.1904   22.0096 H       1  <0>         0.0518
     36 H13         5.9826   23.1810   24.4962 H       1  <0>         0.0867
     37 H14         4.6178   24.7565   22.6976 H       1  <0>         0.0322
     38 H15         4.0126   24.5432   24.3462 H       1  <0>         0.0322
     39 H16         5.7474   26.8454   23.2512 H       1  <0>         0.0319
     40 H17         4.2597   26.9642   24.1945 H       1  <0>         0.0319
     41 H18         6.6281   27.1381   25.4758 H       1  <0>         0.0814
     42 H19         5.3156   26.1910   26.2187 H       1  <0>         0.0814
     43 H20         5.7861   24.3917   26.9416 H       1  <0>         0.0812
     44 H21         6.9499   23.2084   26.2471 H       1  <0>         0.0812
     45 H22         7.8257   24.2104   28.3379 H       1  <0>         0.0281
     46 H23         8.8349   24.6672   26.9240 H       1  <0>         0.0281
     47 H24         7.6729   25.8487   27.6174 H       1  <0>         0.0281
     48 H25         7.8092   17.0602   20.5218 H       1  <0>         0.0311
     49 H26         9.1930   16.2377   21.3447 H       1  <0>         0.0311
     50 H27         7.0556   15.0719   21.7876 H       1  <0>         0.0233
     51 H28         7.7452   15.7653   23.2943 H       1  <0>         0.0233
     52 H29         6.3702   16.5826   22.4766 H       1  <0>         0.0233
@<TRIPOS>BOND
     1     5    22    1
     2    22    23    1
     3     5     8   ar
     4     2     5   ar
     5     2     4    1
     6     8    10   ar
     7     2    13   ar
     8     1    10    1
     9    10    11   ar
    10    11    13   ar
    11    13    14    1
    12     3    14   am
    13     3    15    1
    14     7    11    1
    15     9    14    2
    16    15    16    1
    17     7    12    1
    18    16    17    1
    19     6    16    1
    20    17    18    1
    21    18    19    1
    22     6    19    1
    23     6    20    1
    24    20    21    1
    25     1    24    1
    26     1    25    1
    27     1    26    1
    28     3    27    1
    29     4    28    1
    30     6    29    1
    31     8    30    1
    32    12    31    1
    33    12    32    1
    34    12    33    1
    35    15    34    1
    36    15    35    1
    37    16    36    1
    38    17    37    1
    39    17    38    1
    40    18    39    1
    41    18    40    1
    42    19    41    1
    43    19    42    1
    44    20    43    1
    45    20    44    1
    46    21    45    1
    47    21    46    1
    48    21    47    1
    49    22    48    1
    50    22    49    1
    51    23    50    1
    52    23    51    1
    53    23    52    1
@<TRIPOS>SUBSTRUCTURE
     1 <0>         1 TEMP              0 ****  ****    0 ROOT

