
##########                                Name:               *****
##########                    Molecular_Weight:              321.44
##########                DOCK_Rotatable_Bonds:                   8
##########                       Formal_Charge:              1.0002
##########                     HBond_Acceptors:                   5
##########                        HBond_Donors:                   3
##########                         Heavy_Atoms:                  23
##########                            HA_RMSDs:               0.363
##########                            HA_RMSDh:               0.363
##########                            HA_RMSDm:               0.363
##########                          Grid_Score:          -50.501030
##########                     Grid_vdw_energy:          -42.316231
##########                      Grid_es_energy:           -8.184798
##########           Internal_energy_repulsive:           22.671688

@<TRIPOS>MOLECULE
*****
 52 53 1 0 0
SMALL
USER_CHARGES


@<TRIPOS>ATOM
      1 C1         12.2939   19.0465   22.8147 C.3     1  <0>        -0.0372
      2 C2          7.8615   18.9290   22.0127 C.ar    1  <0>         0.0903
      3 N1          8.1698   22.5225   22.7423 N.am    1  <0>        -0.3058
      4 O1          6.5266   18.8933   21.7576 O.3     1  <0>        -0.3587
      5 C3          8.6313   17.7856   21.7702 C.ar    1  <0>        -0.0168
      6 N2          7.7150   24.3111   25.3145 N.4     1  <0>         0.2383
      7 O2         10.4261   21.2393   23.2633 O.3     1  <0>        -0.3468
      8 C4         10.0066   17.8404   22.0071 C.ar    1  <0>        -0.0507
      9 O3          6.3272   21.2219   22.8609 O.2     1  <0>        -0.2700
     10 C5         10.5945   19.0035   22.4984 C.ar    1  <0>        -0.0193
     11 C6          9.8197   20.1322   22.7596 C.ar    1  <0>         0.0933
     12 C7         10.5032   21.1137   24.6899 C.3     1  <0>         0.0431
     13 C8          8.4382   20.0996   22.5273 C.ar    1  <0>         0.0967
     14 C9          7.5451   21.3422   22.7501 C.2     1  <0>         0.2493
     15 C10         7.4731   23.8139   22.9087 C.3     1  <0>         0.0548
     16 C11         6.7628   23.8920   24.2650 C.3     1  <0>        -0.0048
     17 C12         5.6803   24.9668   24.2109 C.3     1  <0>        -0.0034
     18 C13         6.4221   26.2115   24.6692 C.3     1  <0>        -0.0074
     19 C14         7.3131   25.6577   25.7708 C.3     1  <0>        -0.0314
     20 C15         7.6347   23.3613   26.4327 C.3     1  <0>        -0.0345
     21 C16         8.7487   23.6306   27.4334 C.3     1  <0>        -0.0245
     22 C17         8.0828   16.4725   21.1837 C.3     1  <0>        -0.0281
     23 C18         7.1063   15.7655   22.1272 C.3     1  <0>        -0.0612
     24 H1         12.8265   19.3873   21.9145 H       1  <0>         0.0278
     25 H2         12.4949   19.7404   23.6442 H       1  <0>         0.0278
     26 H3         12.6417   18.0390   23.0868 H       1  <0>         0.0278
     27 H4          9.1619   22.5324   22.6172 H       1  <0>         0.1492
     28 H5          6.1484   19.7482   21.9267 H       1  <0>         0.2174
     29 H6          8.6526   24.3291   24.9672 H       1  <0>         0.2037
     30 H7         10.6193   16.9737   21.8077 H       1  <0>         0.0625
     31 H8         10.9926   22.0043   25.1109 H       1  <0>         0.0529
     32 H9          9.4887   21.0222   25.1051 H       1  <0>         0.0529
     33 H10        11.0873   20.2181   24.9479 H       1  <0>         0.0529
     34 H11         8.2113   24.6270   22.8462 H       1  <0>         0.0518
     35 H12         6.7256   23.9205   22.1089 H       1  <0>         0.0518
     36 H13         6.3411   22.9007   24.4872 H       1  <0>         0.0867
     37 H14         5.2723   25.0848   23.1962 H       1  <0>         0.0322
     38 H15         4.8346   24.7284   24.8728 H       1  <0>         0.0322
     39 H16         7.0053   26.6681   23.8560 H       1  <0>         0.0319
     40 H17         5.7372   26.9872   25.0422 H       1  <0>         0.0319
     41 H18         8.1943   26.2989   25.9201 H       1  <0>         0.0814
     42 H19         6.7667   25.6006   26.7237 H       1  <0>         0.0814
     43 H20         6.6624   23.4741   26.9345 H       1  <0>         0.0812
     44 H21         7.7360   22.3367   26.0454 H       1  <0>         0.0812
     45 H22         8.6771   22.9135   28.2644 H       1  <0>         0.0281
     46 H23         9.7234   23.5189   26.9357 H       1  <0>         0.0281
     47 H24         8.6512   24.6546   27.8234 H       1  <0>         0.0281
     48 H25         7.5543   16.7046   20.2474 H       1  <0>         0.0311
     49 H26         8.9299   15.7976   20.9914 H       1  <0>         0.0311
     50 H27         6.7486   14.8375   21.6573 H       1  <0>         0.0233
     51 H28         7.6177   15.5250   23.0709 H       1  <0>         0.0233
     52 H29         6.2509   16.4262   22.3315 H       1  <0>         0.0233
@<TRIPOS>BOND
     1     5    22    1
     2    22    23    1
     3     5     8   ar
     4     2     5   ar
     5     2     4    1
     6     8    10   ar
     7     2    13   ar
     8     1    10    1
     9    10    11   ar
    10    11    13   ar
    11    13    14    1
    12     3    14   am
    13     3    15    1
    14     7    11    1
    15     9    14    2
    16    15    16    1
    17     7    12    1
    18    16    17    1
    19     6    16    1
    20    17    18    1
    21    18    19    1
    22     6    19    1
    23     6    20    1
    24    20    21    1
    25     1    24    1
    26     1    25    1
    27     1    26    1
    28     3    27    1
    29     4    28    1
    30     6    29    1
    31     8    30    1
    32    12    31    1
    33    12    32    1
    34    12    33    1
    35    15    34    1
    36    15    35    1
    37    16    36    1
    38    17    37    1
    39    17    38    1
    40    18    39    1
    41    18    40    1
    42    19    41    1
    43    19    42    1
    44    20    43    1
    45    20    44    1
    46    21    45    1
    47    21    46    1
    48    21    47    1
    49    22    48    1
    50    22    49    1
    51    23    50    1
    52    23    51    1
    53    23    52    1
@<TRIPOS>SUBSTRUCTURE
     1 <0>         1 TEMP              0 ****  ****    0 ROOT

