
##########                                Name:               *****
##########                    Molecular_Weight:              321.44
##########                DOCK_Rotatable_Bonds:                   8
##########                       Formal_Charge:              1.0002
##########                     HBond_Acceptors:                   5
##########                        HBond_Donors:                   3
##########                         Heavy_Atoms:                  23
##########                            HA_RMSDs:               0.555
##########                            HA_RMSDh:               0.555
##########                            HA_RMSDm:               0.553
##########                          Grid_Score:          -51.761559
##########                     Grid_vdw_energy:          -45.419369
##########                      Grid_es_energy:           -6.342192
##########           Internal_energy_repulsive:           28.006594

@<TRIPOS>MOLECULE
*****
 52 53 1 0 0
SMALL
USER_CHARGES


@<TRIPOS>ATOM
      1 C1         12.2512   19.4726   23.5679 C.3     1  <0>        -0.0372
      2 C2          7.9232   19.1763   22.3500 C.ar    1  <0>         0.0903
      3 N1          8.0549   22.8058   22.9248 N.am    1  <0>        -0.3058
      4 O1          6.6211   19.0861   21.9696 O.3     1  <0>        -0.3587
      5 C3          8.7454   18.0496   22.2340 C.ar    1  <0>        -0.0168
      6 N2          7.3501   24.6963   25.3522 N.4     1  <0>         0.2383
      7 O2         10.2867   21.6198   23.7362 O.3     1  <0>        -0.3468
      8 C4         10.0889   18.1594   22.5992 C.ar    1  <0>        -0.0507
      9 O3          6.2489   21.4502   22.9600 O.2     1  <0>        -0.2700
     10 C5         10.5927   19.3607   23.0921 C.ar    1  <0>        -0.0193
     11 C6          9.7641   20.4732   23.2268 C.ar    1  <0>         0.0933
     12 C7         10.2891   21.5289   25.1676 C.3     1  <0>         0.0431
     13 C8          8.4133   20.3857   22.8645 C.ar    1  <0>         0.0967
     14 C9          7.4676   21.6066   22.9446 C.2     1  <0>         0.2493
     15 C10         7.3082   24.0792   22.9624 C.3     1  <0>         0.0548
     16 C11         6.4915   24.2071   24.2535 C.3     1  <0>        -0.0048
     17 C12         5.3981   25.2548   24.0617 C.3     1  <0>        -0.0034
     18 C13         6.0795   26.5355   24.5145 C.3     1  <0>        -0.0074
     19 C14         6.8900   26.0544   25.7084 C.3     1  <0>        -0.0314
     20 C15         7.1981   23.7997   26.5064 C.3     1  <0>        -0.0345
     21 C16         8.4377   23.8596   27.3865 C.3     1  <0>        -0.0245
     22 C17         8.2944   16.6958   21.6570 C.3     1  <0>        -0.0281
     23 C18         7.0370   16.1511   22.3396 C.3     1  <0>        -0.0612
     24 H1         12.8590   19.7927   22.7088 H       1  <0>         0.0278
     25 H2         12.3505   20.2068   24.3810 H       1  <0>         0.0278
     26 H3         12.5995   18.4893   23.9171 H       1  <0>         0.0278
     27 H4          9.0533   22.8434   22.8823 H       1  <0>         0.1492
     28 H5          6.1978   19.9287   22.0855 H       1  <0>         0.2174
     29 H6          8.3118   24.7175   25.0789 H       1  <0>         0.2037
     30 H7         10.7427   17.3056   22.4987 H       1  <0>         0.0625
     31 H8         10.7101   22.4517   25.5933 H       1  <0>         0.0529
     32 H9          9.2584   21.3960   25.5281 H       1  <0>         0.0529
     33 H10        10.9005   20.6692   25.4791 H       1  <0>         0.0529
     34 H11         8.0237   24.9130   22.9099 H       1  <0>         0.0518
     35 H12         6.6229   24.1153   22.1028 H       1  <0>         0.0518
     36 H13         6.0708   23.2189   24.4908 H       1  <0>         0.0867
     37 H14         5.0697   25.3154   23.0136 H       1  <0>         0.0322
     38 H15         4.5069   25.0306   24.6665 H       1  <0>         0.0322
     39 H16         6.7172   26.9649   23.7278 H       1  <0>         0.0319
     40 H17         5.3538   27.3135   24.7939 H       1  <0>         0.0319
     41 H18         7.7452   26.7206   25.8943 H       1  <0>         0.0814
     42 H19         6.2709   26.0314   26.6174 H       1  <0>         0.0814
     43 H20         6.3217   24.1110   27.0937 H       1  <0>         0.0812
     44 H21         7.0579   22.7691   26.1482 H       1  <0>         0.0812
     45 H22         8.3109   23.1846   28.2458 H       1  <0>         0.0281
     46 H23         9.3169   23.5489   26.8030 H       1  <0>         0.0281
     47 H24         8.5817   24.8888   27.7470 H       1  <0>         0.0281
     48 H25         8.0782   16.8293   20.5868 H       1  <0>         0.0311
     49 H26         9.1084   15.9697   21.7985 H       1  <0>         0.0311
     50 H27         6.7629   15.1862   21.8881 H       1  <0>         0.0233
     51 H28         7.2341   16.0109   23.4126 H       1  <0>         0.0233
     52 H29         6.2105   16.8651   22.2086 H       1  <0>         0.0233
@<TRIPOS>BOND
     1     5    22    1
     2    22    23    1
     3     5     8   ar
     4     2     5   ar
     5     2     4    1
     6     8    10   ar
     7     2    13   ar
     8     1    10    1
     9    10    11   ar
    10    11    13   ar
    11    13    14    1
    12     3    14   am
    13     3    15    1
    14     7    11    1
    15     9    14    2
    16    15    16    1
    17     7    12    1
    18    16    17    1
    19     6    16    1
    20    17    18    1
    21    18    19    1
    22     6    19    1
    23     6    20    1
    24    20    21    1
    25     1    24    1
    26     1    25    1
    27     1    26    1
    28     3    27    1
    29     4    28    1
    30     6    29    1
    31     8    30    1
    32    12    31    1
    33    12    32    1
    34    12    33    1
    35    15    34    1
    36    15    35    1
    37    16    36    1
    38    17    37    1
    39    17    38    1
    40    18    39    1
    41    18    40    1
    42    19    41    1
    43    19    42    1
    44    20    43    1
    45    20    44    1
    46    21    45    1
    47    21    46    1
    48    21    47    1
    49    22    48    1
    50    22    49    1
    51    23    50    1
    52    23    51    1
    53    23    52    1
@<TRIPOS>SUBSTRUCTURE
     1 <0>         1 TEMP              0 ****  ****    0 ROOT

