
##########                                Name:               *****
##########                    Molecular_Weight:              321.44
##########                DOCK_Rotatable_Bonds:                   8
##########                       Formal_Charge:              1.0002
##########                     HBond_Acceptors:                   5
##########                        HBond_Donors:                   3
##########                         Heavy_Atoms:                  23
##########                            HA_RMSDs:               0.311
##########                            HA_RMSDh:               0.311
##########                            HA_RMSDm:               0.311
##########                          Grid_Score:          -43.130215
##########                     Grid_vdw_energy:          -34.410488
##########                      Grid_es_energy:           -8.719727
##########           Internal_energy_repulsive:           32.348099

@<TRIPOS>MOLECULE
*****
 52 53 1 0 0
SMALL
USER_CHARGES


@<TRIPOS>ATOM
      1 C1         12.5078   19.1900   22.8432 C.3     1  <0>        -0.0372
      2 C2          8.0363   19.0144   22.3169 C.ar    1  <0>         0.0903
      3 N1          8.3414   22.6416   22.7536 N.am    1  <0>        -0.3058
      4 O1          6.6887   18.9604   22.1448 O.3     1  <0>        -0.3587
      5 C3          8.7981   17.8629   22.0873 C.ar    1  <0>        -0.0168
      6 N2          7.8244   24.0839   25.3391 N.4     1  <0>         0.2383
      7 O2         10.6551   21.3958   23.2907 O.3     1  <0>        -0.3468
      8 C4         10.1847   17.9352   22.2377 C.ar    1  <0>        -0.0507
      9 O3          6.5550   21.3395   23.2160 O.2     1  <0>        -0.2700
     10 C5         10.7929   19.1243   22.6325 C.ar    1  <0>        -0.0193
     11 C6         10.0273   20.2619   22.8818 C.ar    1  <0>         0.0933
     12 C7         10.9711   21.2707   24.6841 C.3     1  <0>         0.0431
     13 C8          8.6346   20.2121   22.7352 C.ar    1  <0>         0.0967
     14 C9          7.7479   21.4611   22.9475 C.2     1  <0>         0.2493
     15 C10         7.6418   23.9357   22.8818 C.3     1  <0>         0.0548
     16 C11         6.8764   24.0254   24.2071 C.3     1  <0>        -0.0048
     17 C12         6.0777   25.3257   24.2460 C.3     1  <0>        -0.0034
     18 C13         7.0533   26.2978   24.8885 C.3     1  <0>        -0.0074
     19 C14         7.7137   25.4264   25.9461 C.3     1  <0>        -0.0314
     20 C15         7.4496   23.0593   26.3234 C.3     1  <0>        -0.0345
     21 C16         8.6182   22.7703   27.2537 C.3     1  <0>        -0.0245
     22 C17         8.2245   16.5193   21.6029 C.3     1  <0>        -0.0281
     23 C18         7.3485   15.8358   22.6560 C.3     1  <0>        -0.0612
     24 H1         12.9831   19.4862   21.8964 H       1  <0>         0.0278
     25 H2         12.7534   19.9265   23.6225 H       1  <0>         0.0278
     26 H3         12.8783   18.1993   23.1451 H       1  <0>         0.0278
     27 H4          9.3108   22.6497   22.5086 H       1  <0>         0.1492
     28 H5          6.2881   19.7277   22.5362 H       1  <0>         0.2174
     29 H6          8.7626   23.9179   25.0353 H       1  <0>         0.2037
     30 H7         10.7903   17.0617   22.0464 H       1  <0>         0.0625
     31 H8         11.4803   22.1830   25.0284 H       1  <0>         0.0529
     32 H9         10.0439   21.1294   25.2589 H       1  <0>         0.0529
     33 H10        11.6313   20.4038   24.8337 H       1  <0>         0.0529
     34 H11         8.3840   24.7467   22.8439 H       1  <0>         0.0518
     35 H12         6.9282   24.0383   22.0511 H       1  <0>         0.0518
     36 H13         6.2228   23.1441   24.2842 H       1  <0>         0.0867
     37 H14         5.7794   25.6521   23.2388 H       1  <0>         0.0322
     38 H15         5.1561   25.2213   24.8374 H       1  <0>         0.0322
     39 H16         7.7812   26.6923   24.1643 H       1  <0>         0.0319
     40 H17         6.5419   27.1664   25.3289 H       1  <0>         0.0319
     41 H18         8.7066   25.8185   26.2113 H       1  <0>         0.0814
     42 H19         7.1040   25.3925   26.8611 H       1  <0>         0.0814
     43 H20         6.5963   23.4213   26.9157 H       1  <0>         0.0812
     44 H21         7.1700   22.1355   25.7957 H       1  <0>         0.0812
     45 H22         8.3245   22.0026   27.9847 H       1  <0>         0.0281
     46 H23         9.4741   22.4079   26.6654 H       1  <0>         0.0281
     47 H24         8.9013   23.6918   27.7837 H       1  <0>         0.0281
     48 H25         7.6111   16.7057   20.7090 H       1  <0>         0.0311
     49 H26         9.0638   15.8502   21.3621 H       1  <0>         0.0311
     50 H27         6.9681   14.8844   22.2558 H       1  <0>         0.0233
     51 H28         7.9457   15.6410   23.5590 H       1  <0>         0.0233
     52 H29         6.5023   16.4911   22.9101 H       1  <0>         0.0233
@<TRIPOS>BOND
     1     5    22    1
     2    22    23    1
     3     5     8   ar
     4     2     5   ar
     5     2     4    1
     6     8    10   ar
     7     2    13   ar
     8     1    10    1
     9    10    11   ar
    10    11    13   ar
    11    13    14    1
    12     3    14   am
    13     3    15    1
    14     7    11    1
    15     9    14    2
    16    15    16    1
    17     7    12    1
    18    16    17    1
    19     6    16    1
    20    17    18    1
    21    18    19    1
    22     6    19    1
    23     6    20    1
    24    20    21    1
    25     1    24    1
    26     1    25    1
    27     1    26    1
    28     3    27    1
    29     4    28    1
    30     6    29    1
    31     8    30    1
    32    12    31    1
    33    12    32    1
    34    12    33    1
    35    15    34    1
    36    15    35    1
    37    16    36    1
    38    17    37    1
    39    17    38    1
    40    18    39    1
    41    18    40    1
    42    19    41    1
    43    19    42    1
    44    20    43    1
    45    20    44    1
    46    21    45    1
    47    21    46    1
    48    21    47    1
    49    22    48    1
    50    22    49    1
    51    23    50    1
    52    23    51    1
    53    23    52    1
@<TRIPOS>SUBSTRUCTURE
     1 <0>         1 TEMP              0 ****  ****    0 ROOT

