
##########                                Name:               *****
##########                    Molecular_Weight:              321.44
##########                DOCK_Rotatable_Bonds:                   8
##########                       Formal_Charge:              1.0002
##########                     HBond_Acceptors:                   5
##########                        HBond_Donors:                   3
##########                         Heavy_Atoms:                  23
##########                            HA_RMSDs:               0.426
##########                            HA_RMSDh:               0.426
##########                            HA_RMSDm:               0.426
##########                          Grid_Score:          -50.137192
##########                     Grid_vdw_energy:          -42.678726
##########                      Grid_es_energy:           -7.458464
##########           Internal_energy_repulsive:           25.675180

@<TRIPOS>MOLECULE
*****
 52 53 1 0 0
SMALL
USER_CHARGES


@<TRIPOS>ATOM
      1 C1         12.2241   19.3739   23.4388 C.3     1  <0>        -0.0372
      2 C2          7.8715   19.0873   22.3095 C.ar    1  <0>         0.0903
      3 N1          8.0120   22.7089   22.9381 N.am    1  <0>        -0.3058
      4 O1          6.5616   19.0002   21.9557 O.3     1  <0>        -0.3587
      5 C3          8.6923   17.9633   22.1614 C.ar    1  <0>        -0.0168
      6 N2          7.5590   24.5697   25.3888 N.4     1  <0>         0.2383
      7 O2         10.2611   21.5159   23.6769 O.3     1  <0>        -0.3468
      8 C4         10.0432   18.0703   22.4993 C.ar    1  <0>        -0.0507
      9 O3          6.2076   21.3512   22.9763 O.2     1  <0>        -0.2700
     10 C5         10.5559   19.2658   22.9969 C.ar    1  <0>        -0.0193
     11 C6          9.7292   20.3753   23.1637 C.ar    1  <0>         0.0933
     12 C7         10.1206   21.4885   25.1039 C.3     1  <0>         0.0431
     13 C8          8.3710   20.2906   22.8292 C.ar    1  <0>         0.0967
     14 C9          7.4258   21.5089   22.9453 C.2     1  <0>         0.2493
     15 C10         7.2651   23.9807   23.0097 C.3     1  <0>         0.0548
     16 C11         6.5767   24.1457   24.3695 C.3     1  <0>        -0.0048
     17 C12         5.5380   25.2607   24.2816 C.3     1  <0>        -0.0034
     18 C13         6.3357   26.4923   24.6772 C.3     1  <0>        -0.0074
     19 C14         7.2182   25.9499   25.7912 C.3     1  <0>        -0.0314
     20 C15         7.4552   23.6725   26.5479 C.3     1  <0>        -0.0345
     21 C16         8.7181   23.7551   27.3924 C.3     1  <0>        -0.0245
     22 C17         8.2307   16.6166   21.5765 C.3     1  <0>        -0.0281
     23 C18         7.0725   15.9962   22.3620 C.3     1  <0>        -0.0612
     24 H1         12.8131   19.7061   22.5711 H       1  <0>         0.0278
     25 H2         12.3399   20.0976   24.2590 H       1  <0>         0.0278
     26 H3         12.5809   18.3866   23.7676 H       1  <0>         0.0278
     27 H4          9.0096   22.7482   22.8812 H       1  <0>         0.1492
     28 H5          6.1566   19.8566   22.0263 H       1  <0>         0.2174
     29 H6          8.4918   24.5344   25.0302 H       1  <0>         0.2037
     30 H7         10.6957   17.2189   22.3736 H       1  <0>         0.0625
     31 H8         10.5477   22.4071   25.5325 H       1  <0>         0.0529
     32 H9          9.0543   21.4231   25.3660 H       1  <0>         0.0529
     33 H10        10.6519   20.6141   25.5077 H       1  <0>         0.0529
     34 H11         7.9673   24.8145   22.8628 H       1  <0>         0.0518
     35 H12         6.4995   23.9886   22.2200 H       1  <0>         0.0518
     36 H13         6.1182   23.1829   24.6392 H       1  <0>         0.0867
     37 H14         5.1216   25.3521   23.2676 H       1  <0>         0.0322
     38 H15         4.6923   25.0858   24.9630 H       1  <0>         0.0322
     39 H16         6.9261   26.8895   23.8383 H       1  <0>         0.0319
     40 H17         5.6879   27.3107   25.0242 H       1  <0>         0.0319
     41 H18         8.1265   26.5602   25.9024 H       1  <0>         0.0814
     42 H19         6.6826   25.9559   26.7520 H       1  <0>         0.0814
     43 H20         6.5906   23.9698   27.1595 H       1  <0>         0.0812
     44 H21         7.3227   22.6391   26.1950 H       1  <0>         0.0812
     45 H22         8.6273   23.0794   28.2557 H       1  <0>         0.0281
     46 H23         9.5856   23.4586   26.7845 H       1  <0>         0.0281
     47 H24         8.8546   24.7872   27.7475 H       1  <0>         0.0281
     48 H25         7.8981   16.7834   20.5413 H       1  <0>         0.0311
     49 H26         9.0802   15.9181   21.6008 H       1  <0>         0.0311
     50 H27         6.7862   15.0397   21.9003 H       1  <0>         0.0233
     51 H28         7.3867   15.8218   23.4016 H       1  <0>         0.0233
     52 H29         6.2121   16.6816   22.3490 H       1  <0>         0.0233
@<TRIPOS>BOND
     1     5    22    1
     2    22    23    1
     3     5     8   ar
     4     2     5   ar
     5     2     4    1
     6     8    10   ar
     7     2    13   ar
     8     1    10    1
     9    10    11   ar
    10    11    13   ar
    11    13    14    1
    12     3    14   am
    13     3    15    1
    14     7    11    1
    15     9    14    2
    16    15    16    1
    17     7    12    1
    18    16    17    1
    19     6    16    1
    20    17    18    1
    21    18    19    1
    22     6    19    1
    23     6    20    1
    24    20    21    1
    25     1    24    1
    26     1    25    1
    27     1    26    1
    28     3    27    1
    29     4    28    1
    30     6    29    1
    31     8    30    1
    32    12    31    1
    33    12    32    1
    34    12    33    1
    35    15    34    1
    36    15    35    1
    37    16    36    1
    38    17    37    1
    39    17    38    1
    40    18    39    1
    41    18    40    1
    42    19    41    1
    43    19    42    1
    44    20    43    1
    45    20    44    1
    46    21    45    1
    47    21    46    1
    48    21    47    1
    49    22    48    1
    50    22    49    1
    51    23    50    1
    52    23    51    1
    53    23    52    1
@<TRIPOS>SUBSTRUCTURE
     1 <0>         1 TEMP              0 ****  ****    0 ROOT

