
##########                                Name:               *****
##########                    Molecular_Weight:              321.44
##########                DOCK_Rotatable_Bonds:                   8
##########                       Formal_Charge:              1.0002
##########                     HBond_Acceptors:                   5
##########                        HBond_Donors:                   3
##########                         Heavy_Atoms:                  23
##########                            HA_RMSDs:               0.263
##########                            HA_RMSDh:               0.263
##########                            HA_RMSDm:               0.263
##########                          Grid_Score:          -54.437607
##########                     Grid_vdw_energy:          -46.258820
##########                      Grid_es_energy:           -8.178785
##########           Internal_energy_repulsive:           22.377392

@<TRIPOS>MOLECULE
*****
 52 53 1 0 0
SMALL
USER_CHARGES


@<TRIPOS>ATOM
      1 C1         12.4198   19.1850   23.0865 C.3     1  <0>        -0.0372
      2 C2          7.9963   18.9646   22.2575 C.ar    1  <0>         0.0903
      3 N1          8.2360   22.5772   22.9411 N.am    1  <0>        -0.3058
      4 O1          6.6642   18.8975   21.9942 O.3     1  <0>        -0.3587
      5 C3          8.7893   17.8308   22.0467 C.ar    1  <0>        -0.0168
      6 N2          7.7821   24.2877   25.4947 N.4     1  <0>         0.2383
      7 O2         10.5076   21.3515   23.4715 O.3     1  <0>        -0.3468
      8 C4         10.1616   17.9173   22.2916 C.ar    1  <0>        -0.0507
      9 O3          6.4102   21.2496   23.0104 O.2     1  <0>        -0.2700
     10 C5         10.7238   19.1024   22.7597 C.ar    1  <0>        -0.0193
     11 C6          9.9260   20.2218   22.9895 C.ar    1  <0>         0.0933
     12 C7         10.5069   21.2949   24.9046 C.3     1  <0>         0.0431
     13 C8          8.5470   20.1575   22.7486 C.ar    1  <0>         0.0967
     14 C9          7.6290   21.3877   22.9365 C.2     1  <0>         0.2493
     15 C10         7.5153   23.8588   23.0784 C.3     1  <0>         0.0548
     16 C11         6.8073   23.9563   24.4346 C.3     1  <0>        -0.0048
     17 C12         5.8002   25.1029   24.4013 C.3     1  <0>        -0.0034
     18 C13         6.6231   26.2845   24.8874 C.3     1  <0>        -0.0074
     19 C14         7.4708   25.6485   25.9787 C.3     1  <0>        -0.0314
     20 C15         7.6338   23.3221   26.5923 C.3     1  <0>        -0.0345
     21 C16         8.8527   23.3675   27.5018 C.3     1  <0>        -0.0245
     22 C17         8.2700   16.4943   21.4871 C.3     1  <0>        -0.0281
     23 C18         7.3677   15.7500   22.4747 C.3     1  <0>        -0.0612
     24 H1         12.9523   19.5151   22.1823 H       1  <0>         0.0278
     25 H2         12.6016   19.9015   23.9010 H       1  <0>         0.0278
     26 H3         12.7846   18.1909   23.3843 H       1  <0>         0.0278
     27 H4          9.2312   22.6014   22.8466 H       1  <0>         0.1492
     28 H5          6.3032   19.7756   21.9593 H       1  <0>         0.2174
     29 H6          8.7199   24.2494   25.1497 H       1  <0>         0.2037
     30 H7         10.7920   17.0580   22.1165 H       1  <0>         0.0625
     31 H8         10.9756   22.2045   25.3082 H       1  <0>         0.0529
     32 H9          9.4711   21.2241   25.2680 H       1  <0>         0.0529
     33 H10        11.0734   20.4124   25.2367 H       1  <0>         0.0529
     34 H11         8.2376   24.6840   22.9939 H       1  <0>         0.0518
     35 H12         6.7637   23.9318   22.2786 H       1  <0>         0.0518
     36 H13         6.3186   22.9914   24.6349 H       1  <0>         0.0867
     37 H14         5.4046   25.2697   23.3885 H       1  <0>         0.0322
     38 H15         4.9381   24.9086   25.0563 H       1  <0>         0.0322
     39 H16         7.2387   26.7176   24.0852 H       1  <0>         0.0319
     40 H17         5.9911   27.0969   25.2754 H       1  <0>         0.0319
     41 H18         8.3929   26.2252   26.1433 H       1  <0>         0.0814
     42 H19         6.9185   25.6085   26.9291 H       1  <0>         0.0814
     43 H20         6.7365   23.5735   27.1769 H       1  <0>         0.0812
     44 H21         7.5324   22.3102   26.1731 H       1  <0>         0.0812
     45 H22         8.7289   22.6408   28.3182 H       1  <0>         0.0281
     46 H23         9.7527   23.1167   26.9212 H       1  <0>         0.0281
     47 H24         8.9579   24.3781   27.9233 H       1  <0>         0.0281
     48 H25         7.6903   16.7015   20.5755 H       1  <0>         0.0311
     49 H26         9.1349   15.8547   21.2572 H       1  <0>         0.0311
     50 H27         7.0280   14.8065   22.0225 H       1  <0>         0.0233
     51 H28         7.9310   15.5337   23.3944 H       1  <0>         0.0233
     52 H29         6.4956   16.3751   22.7172 H       1  <0>         0.0233
@<TRIPOS>BOND
     1     5    22    1
     2    22    23    1
     3     5     8   ar
     4     2     5   ar
     5     2     4    1
     6     8    10   ar
     7     2    13   ar
     8     1    10    1
     9    10    11   ar
    10    11    13   ar
    11    13    14    1
    12     3    14   am
    13     3    15    1
    14     7    11    1
    15     9    14    2
    16    15    16    1
    17     7    12    1
    18    16    17    1
    19     6    16    1
    20    17    18    1
    21    18    19    1
    22     6    19    1
    23     6    20    1
    24    20    21    1
    25     1    24    1
    26     1    25    1
    27     1    26    1
    28     3    27    1
    29     4    28    1
    30     6    29    1
    31     8    30    1
    32    12    31    1
    33    12    32    1
    34    12    33    1
    35    15    34    1
    36    15    35    1
    37    16    36    1
    38    17    37    1
    39    17    38    1
    40    18    39    1
    41    18    40    1
    42    19    41    1
    43    19    42    1
    44    20    43    1
    45    20    44    1
    46    21    45    1
    47    21    46    1
    48    21    47    1
    49    22    48    1
    50    22    49    1
    51    23    50    1
    52    23    51    1
    53    23    52    1
@<TRIPOS>SUBSTRUCTURE
     1 <0>         1 TEMP              0 ****  ****    0 ROOT

