
##########                                Name:        CPB_940_1C8K
##########                    Molecular_Weight:             402.854
##########                DOCK_Rotatable_Bonds:                   5
##########                       Formal_Charge:              1.0001
##########                     HBond_Acceptors:                   7
##########                        HBond_Donors:                   4
##########                         Heavy_Atoms:                  28
##########                            HA_RMSDs:               6.681
##########                            HA_RMSDh:               5.552
##########                            HA_RMSDm:               4.629
##########                          Grid_Score:          -98.365974
##########                     Grid_vdw_energy:          -31.822382
##########                      Grid_es_energy:          -66.543594
##########           Internal_energy_repulsive:           61.246101

@<TRIPOS>MOLECULE
CPB_940_1C8K
 49 52 1 0 0
SMALL
USER_CHARGES


@<TRIPOS>ATOM
      1 C1         39.0966   34.5868   25.7824 C.3     1  <0>        -0.0430
      2 C2         38.2609   37.5237   34.9093 C.ar    1  <0>        -0.0610
      3 C3         37.3805   36.6216   34.2151 C.ar    1  <0>        -0.0603
      4 C4         39.2300   38.2806   34.1904 C.ar    1  <0>        -0.0507
      5 C5         37.4775   36.4989   32.8010 C.ar    1  <0>        -0.0427
      6 C6         43.4309   40.7658   28.2601 C.ar    1  <0>        -0.0010
      7 C7         41.1168   39.9448   32.6451 C.2     1  <0>         0.0170
      8 C8         40.5328   38.1066   26.4621 C.3     1  <0>        -0.0030
      9 C9         39.5839   37.0058   25.9045 C.3     1  <0>        -0.0314
     10 C10        40.0346   35.4929   27.8196 C.3     1  <0>        -0.0049
     11 C11        39.3340   38.1616   32.7617 C.ar    1  <0>         0.0239
     12 C12        38.4341   37.2488   32.0792 C.ar    1  <0>         0.0506
     13 C13        43.3206   41.1110   29.6259 C.ar    1  <0>         0.0883
     14 C14        42.6088   39.7487   27.6884 C.ar    1  <0>         0.0810
     15 C15        42.1416   40.7239   31.9137 C.2     1  <0>         0.1935
     16 C16        40.3925   38.9912   32.0061 C.2     1  <0>         0.0953
     17 C17        42.3549   40.4298   30.4306 C.ar    1  <0>         0.0822
     18 C18        41.6394   39.0645   28.4966 C.ar    1  <0>         0.0195
     19 C19        41.5240   39.4192   29.8640 C.ar    1  <0>         0.1023
     20 C20        40.6906   37.9412   27.9988 C.3     1  <0>         0.0248
     21 C21        41.0924   36.4714   28.3969 C.3     1  <0>         0.1019
     22 N1         39.9851   35.6305   26.3331 N.4     1  <0>         0.2349
     23 O1         44.1630   42.1091   30.1461 O.3     1  <0>        -0.3590
     24 O2         42.7468   39.4298   26.3471 O.3     1  <0>        -0.3594
     25 O3         42.3403   35.9972   27.8718 O.3     1  <0>        -0.3859
     26 O4         42.7965   41.5651   32.4876 O.2     1  <0>        -0.2870
     27 O5         40.5833   38.7482   30.6831 O.3     1  <0>        -0.3074
     28 Cl1        38.4657   37.0182   30.3616 Cl      1  <0>        -0.0828
     29 H1         39.4342   33.5981   26.1268 H       1  <0>         0.0778
     30 H2         38.0669   34.7629   26.1268 H       1  <0>         0.0778
     31 H3         39.1270   34.6222   24.6835 H       1  <0>         0.0778
     32 H4         38.1865   37.6275   35.9817 H       1  <0>         0.0618
     33 H5         36.6520   36.0425   34.7630 H       1  <0>         0.0618
     34 H6         39.8913   38.9485   34.7225 H       1  <0>         0.0625
     35 H7         36.8151   35.8275   32.2748 H       1  <0>         0.0632
     36 H8         44.1490   41.2800   27.6386 H       1  <0>         0.0669
     37 H9         40.9445   40.1366   33.6940 H       1  <0>         0.0682
     38 H10        41.5186   38.0142   25.9830 H       1  <0>         0.0324
     39 H11        40.1078   39.0976   26.2445 H       1  <0>         0.0324
     40 H12        38.5669   37.2029   26.2745 H       1  <0>         0.0814
     41 H13        39.6088   37.0489   24.8056 H       1  <0>         0.0814
     42 H14        40.3084   34.4606   28.0829 H       1  <0>         0.0840
     43 H15        39.0472   35.7300   28.2424 H       1  <0>         0.0840
     44 H16        39.7308   38.0706   28.5205 H       1  <0>         0.0379
     45 H17        41.1662   36.5021   29.4940 H       1  <0>         0.0653
     46 H18        40.9049   35.4975   25.9640 H       1  <0>         0.2031
     47 H19        43.9007   42.3133   31.0360 H       1  <0>         0.2173
     48 H20        42.2388   38.6509   26.1525 H       1  <0>         0.2173
     49 H21        43.0281   36.6189   28.0787 H       1  <0>         0.2101
@<TRIPOS>BOND
     1     1    22    1
     2     2     3   ar
     3     2     4   ar
     4     3     5   ar
     5     4    11   ar
     6     5    12   ar
     7     6    13   ar
     8     6    14   ar
     9     7    15    1
    10     7    16    2
    11     8     9    1
    12     8    20    1
    13     9    22    1
    14    10    21    1
    15    10    22    1
    16    11    12   ar
    17    11    16    1
    18    12    28    1
    19    13    17   ar
    20    13    23    1
    21    14    18   ar
    22    14    24    1
    23    15    17    1
    24    15    26    2
    25    16    27    1
    26    17    19   ar
    27    18    19   ar
    28    18    20    1
    29    19    27    1
    30    20    21    1
    31    21    25    1
    32     1    29    1
    33     1    30    1
    34     1    31    1
    35     2    32    1
    36     3    33    1
    37     4    34    1
    38     5    35    1
    39     6    36    1
    40     7    37    1
    41     8    38    1
    42     8    39    1
    43     9    40    1
    44     9    41    1
    45    10    42    1
    46    10    43    1
    47    20    44    1
    48    21    45    1
    49    22    46    1
    50    23    47    1
    51    24    48    1
    52    25    49    1
@<TRIPOS>SUBSTRUCTURE
     1 <0>         1 TEMP              0 ****  ****    0 ROOT

