
##########                                Name:        CPB_940_1C8K
##########                    Molecular_Weight:             402.854
##########                DOCK_Rotatable_Bonds:                   5
##########                       Formal_Charge:              1.0001
##########                     HBond_Acceptors:                   7
##########                        HBond_Donors:                   4
##########                         Heavy_Atoms:                  28
##########                            HA_RMSDs:               4.455
##########                            HA_RMSDh:               4.188
##########                            HA_RMSDm:               3.229
##########                          Grid_Score:          -95.218170
##########                     Grid_vdw_energy:          -35.433163
##########                      Grid_es_energy:          -59.785011
##########           Internal_energy_repulsive:           35.588333

@<TRIPOS>MOLECULE
CPB_940_1C8K
 49 52 1 0 0
SMALL
USER_CHARGES


@<TRIPOS>ATOM
      1 C1         41.0463   37.5981   24.9024 C.3     1  <0>        -0.0430
      2 C2         36.0724   34.1014   32.5577 C.ar    1  <0>        -0.0610
      3 C3         36.0267   33.6204   31.2021 C.ar    1  <0>        -0.0603
      4 C4         36.8834   35.2218   32.8977 C.ar    1  <0>        -0.0507
      5 C5         36.7903   34.2803   30.1993 C.ar    1  <0>        -0.0427
      6 C6         41.8943   40.9793   32.0179 C.ar    1  <0>        -0.0010
      7 C7         38.5144   37.5905   33.5507 C.2     1  <0>         0.0170
      8 C8         40.1780   39.5693   28.1078 C.3     1  <0>        -0.0030
      9 C9         39.9846   38.8922   26.7195 C.3     1  <0>        -0.0314
     10 C10        41.7240   37.1849   27.1873 C.3     1  <0>        -0.0049
     11 C11        37.6579   35.8933   31.8899 C.ar    1  <0>         0.0239
     12 C12        37.5952   35.3951   30.5273 C.ar    1  <0>         0.0506
     13 C13        41.1224   40.4743   33.0884 C.ar    1  <0>         0.0883
     14 C14        41.8246   40.3930   30.7185 C.ar    1  <0>         0.0810
     15 C15        39.3670   38.7426   33.9214 C.2     1  <0>         0.1935
     16 C16        38.5291   37.1038   32.2836 C.2     1  <0>         0.0953
     17 C17        40.2525   39.3661   32.8450 C.ar    1  <0>         0.0822
     18 C18        40.9513   39.2801   30.4742 C.ar    1  <0>         0.0195
     19 C19        40.1709   38.7814   31.5471 C.ar    1  <0>         0.1023
     20 C20        40.7866   38.5526   29.1127 C.3     1  <0>         0.0248
     21 C21        42.0787   37.8574   28.5407 C.3     1  <0>         0.1019
     22 N1         41.2269   38.2186   26.2307 N.4     1  <0>         0.2349
     23 O1         41.2370   41.0762   34.3537 O.3     1  <0>        -0.3590
     24 O2         42.5997   40.9082   29.6920 O.3     1  <0>        -0.3594
     25 O3         43.1751   38.7284   28.2291 O.3     1  <0>        -0.3859
     26 O4         39.3632   39.1677   35.0551 O.2     1  <0>        -0.2870
     27 O5         39.3122   37.6759   31.3321 O.3     1  <0>        -0.3074
     28 Cl1        38.4851   36.1190   29.2279 Cl      1  <0>        -0.0828
     29 H1         41.9857   37.1183   24.5905 H       1  <0>         0.0778
     30 H2         40.2490   36.8422   24.9564 H       1  <0>         0.0778
     31 H3         40.7694   38.3717   24.1711 H       1  <0>         0.0778
     32 H4         35.4884   33.6098   33.3217 H       1  <0>         0.0618
     33 H5         35.4175   32.7656   30.9480 H       1  <0>         0.0618
     34 H6         36.9167   35.5693   33.9197 H       1  <0>         0.0625
     35 H7         36.7548   33.9266   29.1795 H       1  <0>         0.0632
     36 H8         42.5476   41.8227   32.1857 H       1  <0>         0.0669
     37 H9         37.8765   37.1342   34.2932 H       1  <0>         0.0682
     38 H10        40.8575   40.4279   28.0024 H       1  <0>         0.0324
     39 H11        39.2033   39.9135   28.4837 H       1  <0>         0.0324
     40 H12        39.1907   38.1360   26.8088 H       1  <0>         0.0814
     41 H13        39.6988   39.6660   25.9918 H       1  <0>         0.0814
     42 H14        42.6211   36.7026   26.7718 H       1  <0>         0.0840
     43 H15        40.9418   36.4285   27.3482 H       1  <0>         0.0840
     44 H16        40.1153   37.6973   29.2796 H       1  <0>         0.0379
     45 H17        42.3940   37.1759   29.3446 H       1  <0>         0.0653
     46 H18        41.9088   38.9463   26.1557 H       1  <0>         0.2031
     47 H19        40.8532   40.5079   35.0112 H       1  <0>         0.2173
     48 H20        42.6184   40.2923   28.9689 H       1  <0>         0.2173
     49 H21        43.1639   39.4749   28.8166 H       1  <0>         0.2101
@<TRIPOS>BOND
     1     1    22    1
     2     2     3   ar
     3     2     4   ar
     4     3     5   ar
     5     4    11   ar
     6     5    12   ar
     7     6    13   ar
     8     6    14   ar
     9     7    15    1
    10     7    16    2
    11     8     9    1
    12     8    20    1
    13     9    22    1
    14    10    21    1
    15    10    22    1
    16    11    12   ar
    17    11    16    1
    18    12    28    1
    19    13    17   ar
    20    13    23    1
    21    14    18   ar
    22    14    24    1
    23    15    17    1
    24    15    26    2
    25    16    27    1
    26    17    19   ar
    27    18    19   ar
    28    18    20    1
    29    19    27    1
    30    20    21    1
    31    21    25    1
    32     1    29    1
    33     1    30    1
    34     1    31    1
    35     2    32    1
    36     3    33    1
    37     4    34    1
    38     5    35    1
    39     6    36    1
    40     7    37    1
    41     8    38    1
    42     8    39    1
    43     9    40    1
    44     9    41    1
    45    10    42    1
    46    10    43    1
    47    20    44    1
    48    21    45    1
    49    22    46    1
    50    23    47    1
    51    24    48    1
    52    25    49    1
@<TRIPOS>SUBSTRUCTURE
     1 <0>         1 TEMP              0 ****  ****    0 ROOT

