
##########                                Name:        CPB_940_1C8K
##########                    Molecular_Weight:             402.854
##########                DOCK_Rotatable_Bonds:                   5
##########                       Formal_Charge:              1.0001
##########                     HBond_Acceptors:                   7
##########                        HBond_Donors:                   4
##########                         Heavy_Atoms:                  28
##########                            HA_RMSDs:               6.466
##########                            HA_RMSDh:               5.482
##########                            HA_RMSDm:               4.692
##########                          Grid_Score:          -93.689011
##########                     Grid_vdw_energy:          -28.884256
##########                      Grid_es_energy:          -64.804756
##########           Internal_energy_repulsive:           22.160038

@<TRIPOS>MOLECULE
CPB_940_1C8K
 49 52 1 0 0
SMALL
USER_CHARGES


@<TRIPOS>ATOM
      1 C1         39.3471   34.7472   26.2531 C.3     1  <0>        -0.0430
      2 C2         37.8031   36.8346   35.5843 C.ar    1  <0>        -0.0610
      3 C3         36.8936   36.0517   34.7900 C.ar    1  <0>        -0.0603
      4 C4         38.7092   37.7393   34.9605 C.ar    1  <0>        -0.0507
      5 C5         36.8981   36.1961   33.3747 C.ar    1  <0>        -0.0427
      6 C6         42.8559   41.0831   29.4655 C.ar    1  <0>        -0.0010
      7 C7         40.1813   39.9481   33.5662 C.2     1  <0>         0.0170
      8 C8         39.7874   38.2663   27.7816 C.3     1  <0>        -0.0030
      9 C9         39.0740   37.0244   27.1717 C.3     1  <0>        -0.0314
     10 C10        40.7933   35.4669   28.0534 C.3     1  <0>        -0.0049
     11 C11        38.7197   37.8903   33.5310 C.ar    1  <0>         0.0239
     12 C12        37.7917   37.0942   32.7475 C.ar    1  <0>         0.0506
     13 C13        42.5199   41.4252   30.7948 C.ar    1  <0>         0.0883
     14 C14        42.2925   39.9328   28.8359 C.ar    1  <0>         0.0810
     15 C15        41.1454   40.8784   32.9362 C.2     1  <0>         0.1935
     16 C16        39.7113   38.8758   32.8793 C.2     1  <0>         0.0953
     17 C17        41.5882   40.6024   31.5012 C.ar    1  <0>         0.0822
     18 C18        41.3573   39.1064   29.5454 C.ar    1  <0>         0.0195
     19 C19        41.0145   39.4570   30.8752 C.ar    1  <0>         0.1023
     20 C20        40.6784   37.8310   28.9776 C.3     1  <0>         0.0248
     21 C21        41.6438   36.6470   28.5953 C.3     1  <0>         0.1019
     22 N1         40.0243   35.9145   26.8538 N.4     1  <0>         0.2349
     23 O1         43.1128   42.5595   31.3765 O.3     1  <0>        -0.3590
     24 O2         42.6482   39.6215   27.5334 O.3     1  <0>        -0.3594
     25 O3         42.5857   36.9177   27.5478 O.3     1  <0>        -0.3859
     26 O4         41.5743   41.8272   33.5541 O.2     1  <0>        -0.2870
     27 O5         40.1038   38.6488   31.5985 O.3     1  <0>        -0.3074
     28 Cl1        37.7126   37.1870   31.0185 Cl      1  <0>        -0.0828
     29 H1         40.0879   33.9627   26.0394 H       1  <0>         0.0778
     30 H2         38.5942   34.3590   26.9549 H       1  <0>         0.0778
     31 H3         38.8544   35.0508   25.3176 H       1  <0>         0.0778
     32 H4         37.7986   36.7355   36.6598 H       1  <0>         0.0618
     33 H5         36.2131   35.3602   35.2645 H       1  <0>         0.0618
     34 H6         39.3932   38.3158   35.5657 H       1  <0>         0.0625
     35 H7         36.2135   35.6150   32.7747 H       1  <0>         0.0632
     36 H8         43.5504   41.7022   28.9171 H       1  <0>         0.0669
     37 H9         39.8498   40.1237   34.5790 H       1  <0>         0.0682
     38 H10        40.4160   38.7390   27.0126 H       1  <0>         0.0324
     39 H11        39.0315   38.9839   28.1331 H       1  <0>         0.0324
     40 H12        38.3372   36.6540   27.8997 H       1  <0>         0.0814
     41 H13        38.5745   37.3321   26.2412 H       1  <0>         0.0814
     42 H14        41.4569   34.6354   27.7737 H       1  <0>         0.0840
     43 H15        40.0934   35.1317   28.8330 H       1  <0>         0.0840
     44 H16        40.0799   37.3918   29.7893 H       1  <0>         0.0379
     45 H17        42.2023   36.4474   29.5217 H       1  <0>         0.0653
     46 H18        40.6610   36.2968   26.1841 H       1  <0>         0.2031
     47 H19        42.7693   42.6822   32.2537 H       1  <0>         0.2173
     48 H20        42.3959   38.7260   27.3412 H       1  <0>         0.2173
     49 H21        43.0487   37.7251   27.7384 H       1  <0>         0.2101
@<TRIPOS>BOND
     1     1    22    1
     2     2     3   ar
     3     2     4   ar
     4     3     5   ar
     5     4    11   ar
     6     5    12   ar
     7     6    13   ar
     8     6    14   ar
     9     7    15    1
    10     7    16    2
    11     8     9    1
    12     8    20    1
    13     9    22    1
    14    10    21    1
    15    10    22    1
    16    11    12   ar
    17    11    16    1
    18    12    28    1
    19    13    17   ar
    20    13    23    1
    21    14    18   ar
    22    14    24    1
    23    15    17    1
    24    15    26    2
    25    16    27    1
    26    17    19   ar
    27    18    19   ar
    28    18    20    1
    29    19    27    1
    30    20    21    1
    31    21    25    1
    32     1    29    1
    33     1    30    1
    34     1    31    1
    35     2    32    1
    36     3    33    1
    37     4    34    1
    38     5    35    1
    39     6    36    1
    40     7    37    1
    41     8    38    1
    42     8    39    1
    43     9    40    1
    44     9    41    1
    45    10    42    1
    46    10    43    1
    47    20    44    1
    48    21    45    1
    49    22    46    1
    50    23    47    1
    51    24    48    1
    52    25    49    1
@<TRIPOS>SUBSTRUCTURE
     1 <0>         1 TEMP              0 ****  ****    0 ROOT

