
##########                                Name:        CPB_940_1C8K
##########                    Molecular_Weight:             402.854
##########                DOCK_Rotatable_Bonds:                   5
##########                       Formal_Charge:              1.0001
##########                     HBond_Acceptors:                   7
##########                        HBond_Donors:                   4
##########                         Heavy_Atoms:                  28
##########                            HA_RMSDs:               6.062
##########                            HA_RMSDh:               4.293
##########                            HA_RMSDm:               3.311
##########                          Grid_Score:          -96.366852
##########                     Grid_vdw_energy:          -39.303566
##########                      Grid_es_energy:          -57.063290
##########           Internal_energy_repulsive:           16.664110

@<TRIPOS>MOLECULE
CPB_940_1C8K
 49 52 1 0 0
SMALL
USER_CHARGES


@<TRIPOS>ATOM
      1 C1         43.0987   37.9660   24.9960 C.3     1  <0>        -0.0430
      2 C2         40.3106   42.6414   32.4651 C.ar    1  <0>        -0.0610
      3 C3         41.7493   42.6419   32.5014 C.ar    1  <0>        -0.0603
      4 C4         39.5956   41.4272   32.2573 C.ar    1  <0>        -0.0507
      5 C5         42.4538   41.4166   32.3389 C.ar    1  <0>        -0.0427
      6 C6         37.6400   34.6273   29.6717 C.ar    1  <0>        -0.0010
      7 C7         38.6454   38.4206   32.8114 C.2     1  <0>         0.0170
      8 C8         41.5463   36.2049   28.0623 C.3     1  <0>        -0.0030
      9 C9         42.6226   36.8822   27.1645 C.3     1  <0>        -0.0314
     10 C10        40.9364   38.3036   26.0263 C.3     1  <0>        -0.0049
     11 C11        40.3007   40.1855   32.0921 C.ar    1  <0>         0.0239
     12 C12        41.7521   40.2065   32.1356 C.ar    1  <0>         0.0506
     13 C13        37.3753   35.2367   30.9188 C.ar    1  <0>         0.0883
     14 C14        38.5724   35.1996   28.7551 C.ar    1  <0>         0.0810
     15 C15        37.8732   37.1791   32.5781 C.2     1  <0>         0.1935
     16 C16        39.5034   38.8842   31.8673 C.2     1  <0>         0.0953
     17 C17        38.0719   36.4383   31.2577 C.ar    1  <0>         0.0822
     18 C18        39.2717   36.4063   29.0953 C.ar    1  <0>         0.0195
     19 C19        39.0117   37.0105   30.3508 C.ar    1  <0>         0.1023
     20 C20        40.3041   37.1294   28.1890 C.3     1  <0>         0.0248
     21 C21        39.7755   37.6051   26.7840 C.3     1  <0>         0.1019
     22 N1         42.0694   37.3456   25.8549 N.4     1  <0>         0.2349
     23 O1         36.4371   34.6430   31.7813 O.3     1  <0>        -0.3590
     24 O2         38.8042   34.5803   27.5375 O.3     1  <0>        -0.3594
     25 O3         39.3410   36.5686   25.8924 O.3     1  <0>        -0.3859
     26 O4         37.0982   36.7735   33.4152 O.2     1  <0>        -0.2870
     27 O5         39.6805   38.2085   30.7019 O.3     1  <0>        -0.3074
     28 Cl1        42.7114   38.7753   31.9467 Cl      1  <0>        -0.0828
     29 H1         42.6412   38.2881   24.0490 H       1  <0>         0.0778
     30 H2         43.5284   38.8381   25.5107 H       1  <0>         0.0778
     31 H3         43.8931   37.2340   24.7890 H       1  <0>         0.0778
     32 H4         39.7700   43.5671   32.5962 H       1  <0>         0.0618
     33 H5         42.2897   43.5649   32.6508 H       1  <0>         0.0618
     34 H6         38.5161   41.4396   32.2236 H       1  <0>         0.0625
     35 H7         43.5333   41.4110   32.3711 H       1  <0>         0.0632
     36 H8         37.1284   33.7136   29.4077 H       1  <0>         0.0669
     37 H9         38.5252   38.9608   33.7389 H       1  <0>         0.0682
     38 H10        41.2438   35.2491   27.6097 H       1  <0>         0.0324
     39 H11        41.9681   36.0231   29.0618 H       1  <0>         0.0324
     40 H12        43.0243   37.7545   27.7009 H       1  <0>         0.0814
     41 H13        43.4204   36.1514   26.9663 H       1  <0>         0.0814
     42 H14        40.5828   38.6332   25.0381 H       1  <0>         0.0840
     43 H15        41.2781   39.1755   26.6034 H       1  <0>         0.0840
     44 H16        40.5566   38.0816   28.6785 H       1  <0>         0.0379
     45 H17        38.9111   38.2413   27.0247 H       1  <0>         0.0653
     46 H18        41.7305   36.5192   25.4050 H       1  <0>         0.2031
     47 H19        36.8025   34.5858   32.6563 H       1  <0>         0.2173
     48 H20        39.4740   35.0573   27.0616 H       1  <0>         0.2173
     49 H21        39.0736   35.8087   26.3959 H       1  <0>         0.2101
@<TRIPOS>BOND
     1     1    22    1
     2     2     3   ar
     3     2     4   ar
     4     3     5   ar
     5     4    11   ar
     6     5    12   ar
     7     6    13   ar
     8     6    14   ar
     9     7    15    1
    10     7    16    2
    11     8     9    1
    12     8    20    1
    13     9    22    1
    14    10    21    1
    15    10    22    1
    16    11    12   ar
    17    11    16    1
    18    12    28    1
    19    13    17   ar
    20    13    23    1
    21    14    18   ar
    22    14    24    1
    23    15    17    1
    24    15    26    2
    25    16    27    1
    26    17    19   ar
    27    18    19   ar
    28    18    20    1
    29    19    27    1
    30    20    21    1
    31    21    25    1
    32     1    29    1
    33     1    30    1
    34     1    31    1
    35     2    32    1
    36     3    33    1
    37     4    34    1
    38     5    35    1
    39     6    36    1
    40     7    37    1
    41     8    38    1
    42     8    39    1
    43     9    40    1
    44     9    41    1
    45    10    42    1
    46    10    43    1
    47    20    44    1
    48    21    45    1
    49    22    46    1
    50    23    47    1
    51    24    48    1
    52    25    49    1
@<TRIPOS>SUBSTRUCTURE
     1 <0>         1 TEMP              0 ****  ****    0 ROOT

