
##########                                Name:        CPB_940_1C8K
##########                    Molecular_Weight:             402.854
##########                DOCK_Rotatable_Bonds:                   5
##########                       Formal_Charge:              1.0001
##########                     HBond_Acceptors:                   7
##########                        HBond_Donors:                   4
##########                         Heavy_Atoms:                  28
##########                            HA_RMSDs:               6.023
##########                            HA_RMSDh:               4.239
##########                            HA_RMSDm:               3.237
##########                          Grid_Score:          -95.787933
##########                     Grid_vdw_energy:          -38.526524
##########                      Grid_es_energy:          -57.261410
##########           Internal_energy_repulsive:           17.894194

@<TRIPOS>MOLECULE
CPB_940_1C8K
 49 52 1 0 0
SMALL
USER_CHARGES


@<TRIPOS>ATOM
      1 C1         43.0821   37.8820   25.0871 C.3     1  <0>        -0.0430
      2 C2         40.4766   42.4385   33.0507 C.ar    1  <0>        -0.0610
      3 C3         41.8605   42.5219   32.6650 C.ar    1  <0>        -0.0603
      4 C4         39.7373   41.2416   32.8278 C.ar    1  <0>        -0.0507
      5 C5         42.4898   41.3941   32.0683 C.ar    1  <0>        -0.0427
      6 C6         37.6013   34.6038   29.7763 C.ar    1  <0>        -0.0010
      7 C7         38.6752   38.3634   32.9339 C.2     1  <0>         0.0170
      8 C8         41.5079   36.0794   28.1180 C.3     1  <0>        -0.0030
      9 C9         42.5979   36.7376   27.2224 C.3     1  <0>        -0.0314
     10 C10        40.9621   38.2856   26.1796 C.3     1  <0>        -0.0049
     11 C11        40.3664   40.0982   32.2252 C.ar    1  <0>         0.0239
     12 C12        41.7646   40.2011   31.8466 C.ar    1  <0>         0.0506
     13 C13        37.3462   35.2131   31.0256 C.ar    1  <0>         0.0883
     14 C14        38.5466   35.1614   28.8640 C.ar    1  <0>         0.0810
     15 C15        37.8791   37.1384   32.6939 C.2     1  <0>         0.1935
     16 C16        39.5441   38.8139   31.9934 C.2     1  <0>         0.0953
     17 C17        38.0658   36.3993   31.3708 C.ar    1  <0>         0.0822
     18 C18        39.2690   36.3526   29.2106 C.ar    1  <0>         0.0195
     19 C19        39.0184   36.9566   30.4681 C.ar    1  <0>         0.1023
     20 C20        40.3172   37.0589   28.3093 C.3     1  <0>         0.0248
     21 C21        39.7837   37.6161   26.9364 C.3     1  <0>         0.1019
     22 N1         42.0412   37.2799   25.9449 N.4     1  <0>         0.2349
     23 O1         36.3948   34.6345   31.8837 O.3     1  <0>        -0.3590
     24 O2         38.7686   34.5427   27.6442 O.3     1  <0>        -0.3594
     25 O3         39.2783   36.6390   26.0156 O.3     1  <0>        -0.3859
     26 O4         37.0946   36.7446   33.5278 O.2     1  <0>        -0.2870
     27 O5         39.7100   38.1397   30.8255 O.3     1  <0>        -0.3074
     28 Cl1        42.6302   38.8921   31.1107 Cl      1  <0>        -0.0828
     29 H1         42.6216   38.2640   24.1641 H       1  <0>         0.0778
     30 H2         43.5664   38.7103   25.6251 H       1  <0>         0.0778
     31 H3         43.8339   37.1201   24.8335 H       1  <0>         0.0778
     32 H4         39.9956   43.2885   33.5117 H       1  <0>         0.0618
     33 H5         42.4169   43.4332   32.8273 H       1  <0>         0.0618
     34 H6         38.6969   41.1928   33.1136 H       1  <0>         0.0625
     35 H7         43.5298   41.4498   31.7825 H       1  <0>         0.0632
     36 H8         37.0722   33.7015   29.5076 H       1  <0>         0.0669
     37 H9         38.5639   38.9020   33.8634 H       1  <0>         0.0682
     38 H10        41.1478   35.1587   27.6357 H       1  <0>         0.0324
     39 H11        41.9411   35.8371   29.0996 H       1  <0>         0.0324
     40 H12        43.0546   37.5667   27.7827 H       1  <0>         0.0814
     41 H13        43.3532   35.9763   26.9775 H       1  <0>         0.0814
     42 H14        40.6049   38.6715   25.2134 H       1  <0>         0.0840
     43 H15        41.3598   39.1156   26.7820 H       1  <0>         0.0840
     44 H16        40.6280   37.9771   28.8293 H       1  <0>         0.0379
     45 H17        38.9579   38.2845   27.2216 H       1  <0>         0.0653
     46 H18        41.6514   36.4900   25.4713 H       1  <0>         0.2031
     47 H19        36.7389   34.6111   32.7689 H       1  <0>         0.2173
     48 H20        39.6897   34.6046   27.4202 H       1  <0>         0.2173
     49 H21        38.9636   35.8828   26.4968 H       1  <0>         0.2101
@<TRIPOS>BOND
     1     1    22    1
     2     2     3   ar
     3     2     4   ar
     4     3     5   ar
     5     4    11   ar
     6     5    12   ar
     7     6    13   ar
     8     6    14   ar
     9     7    15    1
    10     7    16    2
    11     8     9    1
    12     8    20    1
    13     9    22    1
    14    10    21    1
    15    10    22    1
    16    11    12   ar
    17    11    16    1
    18    12    28    1
    19    13    17   ar
    20    13    23    1
    21    14    18   ar
    22    14    24    1
    23    15    17    1
    24    15    26    2
    25    16    27    1
    26    17    19   ar
    27    18    19   ar
    28    18    20    1
    29    19    27    1
    30    20    21    1
    31    21    25    1
    32     1    29    1
    33     1    30    1
    34     1    31    1
    35     2    32    1
    36     3    33    1
    37     4    34    1
    38     5    35    1
    39     6    36    1
    40     7    37    1
    41     8    38    1
    42     8    39    1
    43     9    40    1
    44     9    41    1
    45    10    42    1
    46    10    43    1
    47    20    44    1
    48    21    45    1
    49    22    46    1
    50    23    47    1
    51    24    48    1
    52    25    49    1
@<TRIPOS>SUBSTRUCTURE
     1 <0>         1 TEMP              0 ****  ****    0 ROOT

