
##########                                Name:        CPB_940_1C8K
##########                    Molecular_Weight:             402.854
##########                DOCK_Rotatable_Bonds:                   5
##########                       Formal_Charge:              1.0001
##########                     HBond_Acceptors:                   7
##########                        HBond_Donors:                   4
##########                         Heavy_Atoms:                  28
##########                            HA_RMSDs:               5.862
##########                            HA_RMSDh:               3.796
##########                            HA_RMSDm:               2.948
##########                          Grid_Score:          -95.958374
##########                     Grid_vdw_energy:          -40.749626
##########                      Grid_es_energy:          -55.208752
##########           Internal_energy_repulsive:           16.856710

@<TRIPOS>MOLECULE
CPB_940_1C8K
 49 52 1 0 0
SMALL
USER_CHARGES


@<TRIPOS>ATOM
      1 C1         43.3981   38.4279   25.1053 C.3     1  <0>        -0.0430
      2 C2         41.4263   40.3796   33.8882 C.ar    1  <0>        -0.0610
      3 C3         41.3418   41.6477   33.2131 C.ar    1  <0>        -0.0603
      4 C4         40.7236   39.2474   33.3852 C.ar    1  <0>        -0.0507
      5 C5         40.5585   41.7603   32.0308 C.ar    1  <0>        -0.0427
      6 C6         37.5894   34.3147   28.5910 C.ar    1  <0>        -0.0010
      7 C7         38.2453   37.4892   32.4316 C.2     1  <0>         0.0170
      8 C8         41.6014   36.1545   27.6583 C.3     1  <0>        -0.0030
      9 C9         42.7434   36.9806   26.9976 C.3     1  <0>        -0.0314
     10 C10        41.1438   38.5757   25.9697 C.3     1  <0>        -0.0049
     11 C11        39.9300   39.3536   32.1913 C.ar    1  <0>         0.0239
     12 C12        39.8605   40.6409   31.5227 C.ar    1  <0>         0.0506
     13 C13        37.2032   34.6927   29.8967 C.ar    1  <0>         0.0883
     14 C14        38.5915   35.0406   27.8799 C.ar    1  <0>         0.0810
     15 C15        37.5175   36.3091   31.9122 C.2     1  <0>         0.1935
     16 C16        39.1775   38.1132   31.6674 C.2     1  <0>         0.0953
     17 C17        37.8468   35.8148   30.5055 C.ar    1  <0>         0.0822
     18 C18        39.2376   36.1676   28.4912 C.ar    1  <0>         0.0195
     19 C19        38.8553   36.5390   29.8045 C.ar    1  <0>         0.1023
     20 C20        40.3358   37.0401   27.8259 C.3     1  <0>         0.0248
     21 C21        39.9309   37.7530   26.4814 C.3     1  <0>         0.1019
     22 N1         42.3054   37.6647   25.7421 N.4     1  <0>         0.2349
     23 O1         36.2006   33.9553   30.5505 O.3     1  <0>        -0.3590
     24 O2         38.9425   34.6477   26.5984 O.3     1  <0>        -0.3594
     25 O3         39.6001   36.8875   25.3863 O.3     1  <0>        -0.3859
     26 O4         36.6766   35.7612   32.5895 O.2     1  <0>        -0.2870
     27 O5         39.4701   37.6554   30.4221 O.3     1  <0>        -0.3074
     28 Cl1        38.9354   40.8929   30.0788 Cl      1  <0>        -0.0828
     29 H1         43.0243   38.9096   24.1897 H       1  <0>         0.0778
     30 H2         43.7621   39.1974   25.8019 H       1  <0>         0.0778
     31 H3         44.2217   37.7449   24.8501 H       1  <0>         0.0778
     32 H4         42.0260   40.2858   34.7814 H       1  <0>         0.0618
     33 H5         41.8687   42.5070   33.6009 H       1  <0>         0.0618
     34 H6         40.7874   38.3025   33.9044 H       1  <0>         0.0625
     35 H7         40.4966   42.7084   31.5174 H       1  <0>         0.0632
     36 H8         37.1186   33.4625   28.1236 H       1  <0>         0.0669
     37 H9         38.0330   37.8560   33.4250 H       1  <0>         0.0682
     38 H10        41.3599   35.2920   27.0198 H       1  <0>         0.0324
     39 H11        41.9321   35.8017   28.6462 H       1  <0>         0.0324
     40 H12        43.0775   37.7466   27.7129 H       1  <0>         0.0814
     41 H13        43.5696   36.2974   26.7515 H       1  <0>         0.0814
     42 H14        40.8772   39.0722   25.0250 H       1  <0>         0.0840
     43 H15        41.4144   39.3339   26.7193 H       1  <0>         0.0840
     44 H16        40.5242   37.8926   28.4950 H       1  <0>         0.0379
     45 H17        39.0362   38.3355   26.7464 H       1  <0>         0.0653
     46 H18        42.0250   36.9290   25.1255 H       1  <0>         0.2031
     47 H19        35.9440   34.4055   31.3467 H       1  <0>         0.2173
     48 H20        39.3446   35.3774   26.1419 H       1  <0>         0.2173
     49 H21        38.9748   36.2338   25.6764 H       1  <0>         0.2101
@<TRIPOS>BOND
     1     1    22    1
     2     2     3   ar
     3     2     4   ar
     4     3     5   ar
     5     4    11   ar
     6     5    12   ar
     7     6    13   ar
     8     6    14   ar
     9     7    15    1
    10     7    16    2
    11     8     9    1
    12     8    20    1
    13     9    22    1
    14    10    21    1
    15    10    22    1
    16    11    12   ar
    17    11    16    1
    18    12    28    1
    19    13    17   ar
    20    13    23    1
    21    14    18   ar
    22    14    24    1
    23    15    17    1
    24    15    26    2
    25    16    27    1
    26    17    19   ar
    27    18    19   ar
    28    18    20    1
    29    19    27    1
    30    20    21    1
    31    21    25    1
    32     1    29    1
    33     1    30    1
    34     1    31    1
    35     2    32    1
    36     3    33    1
    37     4    34    1
    38     5    35    1
    39     6    36    1
    40     7    37    1
    41     8    38    1
    42     8    39    1
    43     9    40    1
    44     9    41    1
    45    10    42    1
    46    10    43    1
    47    20    44    1
    48    21    45    1
    49    22    46    1
    50    23    47    1
    51    24    48    1
    52    25    49    1
@<TRIPOS>SUBSTRUCTURE
     1 <0>         1 TEMP              0 ****  ****    0 ROOT

