
##########                                Name:        CPB_940_1C8K
##########                    Molecular_Weight:             402.854
##########                DOCK_Rotatable_Bonds:                   5
##########                       Formal_Charge:              1.0001
##########                     HBond_Acceptors:                   7
##########                        HBond_Donors:                   4
##########                         Heavy_Atoms:                  28
##########                            HA_RMSDs:               6.012
##########                            HA_RMSDh:               4.175
##########                            HA_RMSDm:               3.162
##########                          Grid_Score:          -95.258614
##########                     Grid_vdw_energy:          -39.002491
##########                      Grid_es_energy:          -56.256123
##########           Internal_energy_repulsive:           17.900640

@<TRIPOS>MOLECULE
CPB_940_1C8K
 49 52 1 0 0
SMALL
USER_CHARGES


@<TRIPOS>ATOM
      1 C1         43.1161   37.9710   25.2533 C.3     1  <0>        -0.0430
      2 C2         40.5015   42.2224   33.3033 C.ar    1  <0>        -0.0610
      3 C3         41.9144   42.2460   33.0313 C.ar    1  <0>        -0.0603
      4 C4         39.7307   41.0609   33.0107 C.ar    1  <0>        -0.0507
      5 C5         42.5397   41.0945   32.4770 C.ar    1  <0>        -0.0427
      6 C6         37.4556   34.6272   29.6784 C.ar    1  <0>        -0.0010
      7 C7         38.6094   38.1720   33.0490 C.2     1  <0>         0.0170
      8 C8         41.4488   36.1044   28.1944 C.3     1  <0>        -0.0030
      9 C9         42.5660   36.7809   27.3473 C.3     1  <0>        -0.0314
     10 C10        40.9635   38.3526   26.2884 C.3     1  <0>        -0.0049
     11 C11        40.3555   39.8939   32.4503 C.ar    1  <0>         0.0239
     12 C12        41.7829   39.9364   32.1866 C.ar    1  <0>         0.0506
     13 C13        37.2073   35.1730   30.9580 C.ar    1  <0>         0.0883
     14 C14        38.4243   35.2071   28.8053 C.ar    1  <0>         0.0810
     15 C15        37.7807   36.9860   32.7352 C.2     1  <0>         0.1935
     16 C16        39.4988   38.6490   32.1412 C.2     1  <0>         0.0953
     17 C17        37.9575   36.3167   31.3742 C.ar    1  <0>         0.0822
     18 C18        39.1773   36.3558   29.2231 C.ar    1  <0>         0.0195
     19 C19        38.9334   36.8956   30.5107 C.ar    1  <0>         0.1023
     20 C20        40.2530   37.0806   28.3701 C.3     1  <0>         0.0248
     21 C21        39.7621   37.6678   26.9938 C.3     1  <0>         0.1019
     22 N1         42.0491   37.3513   26.0653 N.4     1  <0>         0.2349
     23 O1         36.2325   34.5752   31.7758 O.3     1  <0>        -0.3590
     24 O2         38.6388   34.6514   27.5543 O.3     1  <0>        -0.3594
     25 O3         39.2852   36.7113   26.0369 O.3     1  <0>        -0.3859
     26 O4         36.9782   36.5692   33.5403 O.2     1  <0>        -0.2870
     27 O5         39.6554   38.0364   30.9386 O.3     1  <0>        -0.3074
     28 Cl1        42.6467   38.5941   31.5109 Cl      1  <0>        -0.0828
     29 H1         42.6843   38.3733   24.3250 H       1  <0>         0.0778
     30 H2         43.5837   38.7870   25.8237 H       1  <0>         0.0778
     31 H3         43.8751   37.2141   25.0064 H       1  <0>         0.0778
     32 H4         40.0227   43.0904   33.7319 H       1  <0>         0.0618
     33 H5         42.4954   43.1306   33.2463 H       1  <0>         0.0618
     34 H6         38.6694   41.0570   33.2112 H       1  <0>         0.0625
     35 H7         43.6008   41.1054   32.2764 H       1  <0>         0.0632
     36 H8         36.9033   33.7570   29.3559 H       1  <0>         0.0669
     37 H9         38.5056   38.6610   34.0064 H       1  <0>         0.0682
     38 H10        41.1036   35.1947   27.6814 H       1  <0>         0.0324
     39 H11        41.8515   35.8405   29.1833 H       1  <0>         0.0324
     40 H12        43.0054   37.5973   27.9393 H       1  <0>         0.0814
     41 H13        43.3284   36.0245   27.1093 H       1  <0>         0.0814
     42 H14        40.6362   38.7597   25.3203 H       1  <0>         0.0840
     43 H15        41.3425   39.1690   26.9207 H       1  <0>         0.0840
     44 H16        40.5477   37.9870   28.9192 H       1  <0>         0.0379
     45 H17        38.9281   38.3306   27.2679 H       1  <0>         0.0653
     46 H18        41.6739   36.5722   25.5629 H       1  <0>         0.2031
     47 H19        35.7904   35.2453   32.2838 H       1  <0>         0.2173
     48 H20        39.3062   35.1489   27.0965 H       1  <0>         0.2173
     49 H21        38.5589   36.2253   26.4093 H       1  <0>         0.2101
@<TRIPOS>BOND
     1     1    22    1
     2     2     3   ar
     3     2     4   ar
     4     3     5   ar
     5     4    11   ar
     6     5    12   ar
     7     6    13   ar
     8     6    14   ar
     9     7    15    1
    10     7    16    2
    11     8     9    1
    12     8    20    1
    13     9    22    1
    14    10    21    1
    15    10    22    1
    16    11    12   ar
    17    11    16    1
    18    12    28    1
    19    13    17   ar
    20    13    23    1
    21    14    18   ar
    22    14    24    1
    23    15    17    1
    24    15    26    2
    25    16    27    1
    26    17    19   ar
    27    18    19   ar
    28    18    20    1
    29    19    27    1
    30    20    21    1
    31    21    25    1
    32     1    29    1
    33     1    30    1
    34     1    31    1
    35     2    32    1
    36     3    33    1
    37     4    34    1
    38     5    35    1
    39     6    36    1
    40     7    37    1
    41     8    38    1
    42     8    39    1
    43     9    40    1
    44     9    41    1
    45    10    42    1
    46    10    43    1
    47    20    44    1
    48    21    45    1
    49    22    46    1
    50    23    47    1
    51    24    48    1
    52    25    49    1
@<TRIPOS>SUBSTRUCTURE
     1 <0>         1 TEMP              0 ****  ****    0 ROOT

