
##########                                Name:        CPB_940_1C8K
##########                    Molecular_Weight:             402.854
##########                DOCK_Rotatable_Bonds:                   5
##########                       Formal_Charge:              1.0001
##########                     HBond_Acceptors:                   7
##########                        HBond_Donors:                   4
##########                         Heavy_Atoms:                  28
##########                            HA_RMSDs:               6.011
##########                            HA_RMSDh:               4.264
##########                            HA_RMSDm:               3.254
##########                          Grid_Score:          -97.737274
##########                     Grid_vdw_energy:          -39.487236
##########                      Grid_es_energy:          -58.250034
##########           Internal_energy_repulsive:           25.172014

@<TRIPOS>MOLECULE
CPB_940_1C8K
 49 52 1 0 0
SMALL
USER_CHARGES


@<TRIPOS>ATOM
      1 C1         42.8726   37.8439   24.9769 C.3     1  <0>        -0.0430
      2 C2         40.5216   42.4370   33.0131 C.ar    1  <0>        -0.0610
      3 C3         41.8501   42.5588   32.4736 C.ar    1  <0>        -0.0603
      4 C4         39.7765   41.2371   32.8292 C.ar    1  <0>        -0.0507
      5 C5         42.4199   41.4658   31.7631 C.ar    1  <0>        -0.0427
      6 C6         37.4730   34.6237   29.8156 C.ar    1  <0>        -0.0010
      7 C7         38.7067   38.3838   32.9135 C.2     1  <0>         0.0170
      8 C8         41.4002   36.2647   28.1787 C.3     1  <0>        -0.0030
      9 C9         42.4384   36.9369   27.2335 C.3     1  <0>        -0.0314
     10 C10        40.6702   38.1052   25.9422 C.3     1  <0>        -0.0049
     11 C11        40.3455   40.1287   32.1122 C.ar    1  <0>         0.0239
     12 C12        41.6888   40.2700   31.5789 C.ar    1  <0>         0.0506
     13 C13        37.2868   35.2297   31.0786 C.ar    1  <0>         0.0883
     14 C14        38.3615   35.1877   28.8516 C.ar    1  <0>         0.0810
     15 C15        37.9045   37.1551   32.7172 C.2     1  <0>         0.1935
     16 C16        39.5179   38.8405   31.9255 C.2     1  <0>         0.0953
     17 C17        38.0188   36.4191   31.3843 C.ar    1  <0>         0.0822
     18 C18        39.0963   36.3822   29.1585 C.ar    1  <0>         0.0195
     19 C19        38.9152   36.9828   30.4294 C.ar    1  <0>         0.1023
     20 C20        40.0875   37.0955   28.1999 C.3     1  <0>         0.0248
     21 C21        39.5521   37.3919   26.7489 C.3     1  <0>         0.1019
     22 N1         41.8775   37.2282   25.8784 N.4     1  <0>         0.2349
     23 O1         36.3892   34.6446   31.9888 O.3     1  <0>        -0.3590
     24 O2         38.5163   34.5722   27.6199 O.3     1  <0>        -0.3594
     25 O3         39.2177   36.2441   25.9560 O.3     1  <0>        -0.3859
     26 O4         37.1712   36.7558   33.5940 O.2     1  <0>        -0.2870
     27 O5         39.6201   38.1690   30.7488 O.3     1  <0>        -0.3074
     28 Cl1        42.4792   39.0054   30.6956 Cl      1  <0>        -0.0828
     29 H1         42.4107   38.0371   23.9974 H       1  <0>         0.0778
     30 H2         43.2227   38.7923   25.4105 H       1  <0>         0.0778
     31 H3         43.7257   37.1609   24.8515 H       1  <0>         0.0778
     32 H4         40.0869   43.2602   33.5606 H       1  <0>         0.0618
     33 H5         42.4102   43.4726   32.6071 H       1  <0>         0.0618
     34 H6         38.7771   41.1595   33.2313 H       1  <0>         0.0625
     35 H7         43.4187   41.5503   31.3614 H       1  <0>         0.0632
     36 H8         36.9341   33.7190   29.5760 H       1  <0>         0.0669
     37 H9         38.6461   38.9204   33.8489 H       1  <0>         0.0682
     38 H10        41.1823   35.2492   27.8165 H       1  <0>         0.0324
     39 H11        41.8145   36.2129   29.1963 H       1  <0>         0.0324
     40 H12        42.7601   37.8854   27.6884 H       1  <0>         0.0814
     41 H13        43.2946   36.2562   27.1169 H       1  <0>         0.0814
     42 H14        40.3122   38.3102   24.9224 H       1  <0>         0.0840
     43 H15        40.9312   39.0523   26.4369 H       1  <0>         0.0840
     44 H16        40.2551   38.1070   28.5984 H       1  <0>         0.0379
     45 H17        38.6360   37.9775   26.9161 H       1  <0>         0.0653
     46 H18        41.6132   36.3385   25.5060 H       1  <0>         0.2031
     47 H19        36.3473   35.1732   32.7770 H       1  <0>         0.2173
     48 H20        39.1416   35.0608   27.0976 H       1  <0>         0.2173
     49 H21        38.5804   35.7134   26.4192 H       1  <0>         0.2101
@<TRIPOS>BOND
     1     1    22    1
     2     2     3   ar
     3     2     4   ar
     4     3     5   ar
     5     4    11   ar
     6     5    12   ar
     7     6    13   ar
     8     6    14   ar
     9     7    15    1
    10     7    16    2
    11     8     9    1
    12     8    20    1
    13     9    22    1
    14    10    21    1
    15    10    22    1
    16    11    12   ar
    17    11    16    1
    18    12    28    1
    19    13    17   ar
    20    13    23    1
    21    14    18   ar
    22    14    24    1
    23    15    17    1
    24    15    26    2
    25    16    27    1
    26    17    19   ar
    27    18    19   ar
    28    18    20    1
    29    19    27    1
    30    20    21    1
    31    21    25    1
    32     1    29    1
    33     1    30    1
    34     1    31    1
    35     2    32    1
    36     3    33    1
    37     4    34    1
    38     5    35    1
    39     6    36    1
    40     7    37    1
    41     8    38    1
    42     8    39    1
    43     9    40    1
    44     9    41    1
    45    10    42    1
    46    10    43    1
    47    20    44    1
    48    21    45    1
    49    22    46    1
    50    23    47    1
    51    24    48    1
    52    25    49    1
@<TRIPOS>SUBSTRUCTURE
     1 <0>         1 TEMP              0 ****  ****    0 ROOT

