
##########                                Name:        CPB_940_1C8K
##########                    Molecular_Weight:             402.854
##########                DOCK_Rotatable_Bonds:                   5
##########                       Formal_Charge:              1.0001
##########                     HBond_Acceptors:                   7
##########                        HBond_Donors:                   4
##########                         Heavy_Atoms:                  28
##########                            HA_RMSDs:               5.976
##########                            HA_RMSDh:               4.171
##########                            HA_RMSDm:               3.180
##########                          Grid_Score:          -97.466194
##########                     Grid_vdw_energy:          -37.811985
##########                      Grid_es_energy:          -59.654209
##########           Internal_energy_repulsive:           17.933678

@<TRIPOS>MOLECULE
CPB_940_1C8K
 49 52 1 0 0
SMALL
USER_CHARGES


@<TRIPOS>ATOM
      1 C1         42.9216   37.7255   25.0525 C.3     1  <0>        -0.0430
      2 C2         40.6730   42.0419   33.2099 C.ar    1  <0>        -0.0610
      3 C3         42.0642   42.0690   32.8429 C.ar    1  <0>        -0.0603
      4 C4         39.8836   40.8835   32.9571 C.ar    1  <0>        -0.0507
      5 C5         42.6499   40.9241   32.2344 C.ar    1  <0>        -0.0427
      6 C6         37.4283   34.4525   29.7331 C.ar    1  <0>        -0.0010
      7 C7         38.7356   38.0188   33.0240 C.2     1  <0>         0.0170
      8 C8         41.3617   35.8817   28.0660 C.3     1  <0>        -0.0030
      9 C9         42.4492   36.5425   27.1694 C.3     1  <0>        -0.0314
     10 C10        40.8232   38.1372   26.1832 C.3     1  <0>        -0.0049
     11 C11        40.4684   39.7232   32.3424 C.ar    1  <0>         0.0239
     12 C12        41.8747   39.7690   31.9830 C.ar    1  <0>         0.0506
     13 C13        37.2335   35.0113   31.0163 C.ar    1  <0>         0.0883
     14 C14        38.3661   35.0179   28.8178 C.ar    1  <0>         0.0810
     15 C15        37.8875   36.8358   32.7534 C.2     1  <0>         0.1935
     16 C16        39.5922   38.4815   32.0781 C.2     1  <0>         0.0953
     17 C17        38.0069   36.1534   31.3927 C.ar    1  <0>         0.0822
     18 C18        39.1424   36.1649   29.1956 C.ar    1  <0>         0.0195
     19 C19        38.9522   36.7178   30.4867 C.ar    1  <0>         0.1023
     20 C20        40.1889   36.8747   28.2950 C.3     1  <0>         0.0248
     21 C21        39.6452   37.4693   26.9419 C.3     1  <0>         0.1019
     22 N1         41.8834   37.1207   25.9118 N.4     1  <0>         0.2349
     23 O1         36.2873   34.4275   31.8767 O.3     1  <0>        -0.3590
     24 O2         38.5283   34.4496   27.5646 O.3     1  <0>        -0.3594
     25 O3         39.1122   36.5201   26.0077 O.3     1  <0>        -0.3859
     26 O4         37.1141   36.4317   33.5928 O.2     1  <0>        -0.2870
     27 O5         39.6979   37.8573   30.8760 O.3     1  <0>        -0.3074
     28 Cl1        42.6900   38.4348   31.2351 Cl      1  <0>        -0.0828
     29 H1         42.4543   38.1343   24.1445 H       1  <0>         0.0778
     30 H2         43.4259   38.5345   25.6012 H       1  <0>         0.0778
     31 H3         43.6579   36.9580   24.7721 H       1  <0>         0.0778
     32 H4         40.2248   42.9048   33.6797 H       1  <0>         0.0618
     33 H5         42.6589   42.9513   33.0279 H       1  <0>         0.0618
     34 H6         38.8384   40.8770   33.2291 H       1  <0>         0.0625
     35 H7         43.6950   40.9375   31.9624 H       1  <0>         0.0632
     36 H8         36.8582   33.5833   29.4401 H       1  <0>         0.0669
     37 H9         38.6723   38.5169   33.9802 H       1  <0>         0.0682
     38 H10        40.9809   34.9772   27.5693 H       1  <0>         0.0324
     39 H11        41.8046   35.6117   29.0360 H       1  <0>         0.0324
     40 H12        42.9263   37.3524   27.7409 H       1  <0>         0.0814
     41 H13        43.1893   35.7755   26.8977 H       1  <0>         0.0814
     42 H14        40.4587   38.5493   25.2306 H       1  <0>         0.0840
     43 H15        41.2419   38.9479   26.7975 H       1  <0>         0.0840
     44 H16        40.5209   37.7766   28.8301 H       1  <0>         0.0379
     45 H17        38.8338   38.1438   27.2530 H       1  <0>         0.0653
     46 H18        41.4750   36.3472   25.4269 H       1  <0>         0.2031
     47 H19        35.9538   35.0859   32.4748 H       1  <0>         0.2173
     48 H20        39.2360   34.8880   27.1068 H       1  <0>         0.2173
     49 H21        38.1640   36.5766   26.0044 H       1  <0>         0.2101
@<TRIPOS>BOND
     1     1    22    1
     2     2     3   ar
     3     2     4   ar
     4     3     5   ar
     5     4    11   ar
     6     5    12   ar
     7     6    13   ar
     8     6    14   ar
     9     7    15    1
    10     7    16    2
    11     8     9    1
    12     8    20    1
    13     9    22    1
    14    10    21    1
    15    10    22    1
    16    11    12   ar
    17    11    16    1
    18    12    28    1
    19    13    17   ar
    20    13    23    1
    21    14    18   ar
    22    14    24    1
    23    15    17    1
    24    15    26    2
    25    16    27    1
    26    17    19   ar
    27    18    19   ar
    28    18    20    1
    29    19    27    1
    30    20    21    1
    31    21    25    1
    32     1    29    1
    33     1    30    1
    34     1    31    1
    35     2    32    1
    36     3    33    1
    37     4    34    1
    38     5    35    1
    39     6    36    1
    40     7    37    1
    41     8    38    1
    42     8    39    1
    43     9    40    1
    44     9    41    1
    45    10    42    1
    46    10    43    1
    47    20    44    1
    48    21    45    1
    49    22    46    1
    50    23    47    1
    51    24    48    1
    52    25    49    1
@<TRIPOS>SUBSTRUCTURE
     1 <0>         1 TEMP              0 ****  ****    0 ROOT

