
##########                                Name:        JIN_600_2HZI
##########                    Molecular_Weight:              429.28
##########                DOCK_Rotatable_Bonds:                   3
##########                       Formal_Charge:        -9.99868e-05
##########                     HBond_Acceptors:                   8
##########                        HBond_Donors:                   1
##########                         Heavy_Atoms:                  29
##########                            HA_RMSDs:               0.164
##########                            HA_RMSDh:               0.164
##########                            HA_RMSDm:               0.164
##########                          Grid_Score:          -69.015572
##########                     Grid_vdw_energy:          -66.036819
##########                      Grid_es_energy:           -2.978752
##########           Internal_energy_repulsive:           12.052659

@<TRIPOS>MOLECULE
JIN_600_2HZI
 44 47 1 0 0
SMALL
USER_CHARGES


@<TRIPOS>ATOM
      1 C1          9.1452   11.8539    1.8328 C.3     1  <0>        -0.0369
      2 C2         15.1904   16.0696    5.3197 C.3     1  <0>         0.0100
      3 C3         22.5424   17.7164    4.9970 C.ar    1  <0>        -0.0590
      4 C4         22.1057   16.7349    5.9235 C.ar    1  <0>        -0.0427
      5 C5         21.8103   17.9501    3.7975 C.ar    1  <0>        -0.0427
      6 C6         12.2681   13.4872    4.1579 C.ar    1  <0>        -0.0377
      7 C7         10.9233   13.8068    4.4189 C.ar    1  <0>        -0.0244
      8 C8         11.6267   12.0567    2.3754 C.ar    1  <0>        -0.0348
      9 C9         18.7215   14.5253    3.5666 C.2     1  <0>        -0.0370
     10 C10        17.3429   12.7666    2.5681 C.ar    1  <0>         0.0416
     11 C11        10.2845   12.4410    2.6227 C.ar    1  <0>        -0.0135
     12 C12        12.6767   12.6503    3.1051 C.ar    1  <0>         0.0340
     13 C13         9.9178   13.2805    3.6475 C.ar    1  <0>         0.1264
     14 C14        20.9026   16.0514    5.6818 C.ar    1  <0>         0.0502
     15 C15        20.6178   17.2271    3.6060 C.ar    1  <0>         0.0502
     16 C16        17.4930   13.9095    3.3741 C.ar    1  <0>         0.0343
     17 C17        18.8228   15.6761    4.3496 C.2     1  <0>         0.0479
     18 C18        20.1769   16.2736    4.5401 C.ar    1  <0>         0.0237
     19 C19        16.3918   14.4779    3.9566 C.ar    1  <0>         0.1398
     20 C20        17.6468   16.1440    4.9520 C.2     1  <0>         0.2524
     21 C21        15.0944   12.8438    3.0069 C.ar    1  <0>         0.2212
     22 N1         16.1078   12.2446    2.4292 N.ar    1  <0>        -0.2220
     23 N2         15.1683   13.9385    3.7812 N.ar    1  <0>        -0.1983
     24 N3         13.9300   12.2236    2.7646 N.pl3   1  <0>        -0.2836
     25 N4         16.4668   15.5422    4.7441 N.am    1  <0>        -0.2546
     26 O1         17.6523   17.1450    5.6704 O.2     1  <0>        -0.2696
     27 F1          8.6564   13.5698    3.9472 F       1  <0>        -0.2052
     28 Cl1        20.3713   14.8096    6.8548 Cl      1  <0>        -0.0829
     29 Cl2        19.7954   17.6033    2.1122 Cl      1  <0>        -0.0829
     30 H1          8.8087   10.9221    2.3108 H       1  <0>         0.0278
     31 H2          8.3122   12.5717    1.8022 H       1  <0>         0.0278
     32 H3          9.4822   11.6391    0.8079 H       1  <0>         0.0278
     33 H4         15.4055   16.9470    5.9473 H       1  <0>         0.0433
     34 H5         14.5128   16.3602    4.5034 H       1  <0>         0.0433
     35 H6         14.7142   15.2893    5.9315 H       1  <0>         0.0433
     36 H7         23.4345   18.2895    5.2021 H       1  <0>         0.0618
     37 H8         22.6913   16.5159    6.8041 H       1  <0>         0.0632
     38 H9         22.1585   18.6580    3.0599 H       1  <0>         0.0632
     39 H10        13.0273   13.9073    4.8010 H       1  <0>         0.0637
     40 H11        10.6798   14.4726    5.2337 H       1  <0>         0.0647
     41 H12        11.8449   11.3088    1.6276 H       1  <0>         0.0640
     42 H13        19.6064   14.1107    3.1068 H       1  <0>         0.0633
     43 H14        18.1933   12.3198    2.0744 H       1  <0>         0.0838
     44 H15        13.9850   11.3505    2.2802 H       1  <0>         0.1550
@<TRIPOS>BOND
     1     1    11    1
     2     2    25    1
     3     3     4   ar
     4     3     5   ar
     5     4    14   ar
     6     5    15   ar
     7     6     7   ar
     8     6    12   ar
     9     7    13   ar
    10     8    11   ar
    11     8    12   ar
    12     9    16    1
    13     9    17    2
    14    10    16   ar
    15    10    22   ar
    16    11    13   ar
    17    12    24    1
    18    13    27    1
    19    14    18   ar
    20    14    28    1
    21    15    18   ar
    22    15    29    1
    23    16    19   ar
    24    17    18    1
    25    17    20    1
    26    19    23   ar
    27    19    25    1
    28    20    25   am
    29    20    26    2
    30    21    22   ar
    31    21    23   ar
    32    21    24    1
    33     1    30    1
    34     1    31    1
    35     1    32    1
    36     2    33    1
    37     2    34    1
    38     2    35    1
    39     3    36    1
    40     4    37    1
    41     5    38    1
    42     6    39    1
    43     7    40    1
    44     8    41    1
    45     9    42    1
    46    10    43    1
    47    24    44    1
@<TRIPOS>SUBSTRUCTURE
     1 <0>         1 TEMP              0 ****  ****    0 ROOT

