
##########                                Name:        HXA_200_1MV9
##########                    Molecular_Weight:             327.487
##########                DOCK_Rotatable_Bonds:                  20
##########                       Formal_Charge:           -0.999301
##########                     HBond_Acceptors:                   2
##########                        HBond_Donors:                   0
##########                         Heavy_Atoms:                  24
##########                            HA_RMSDs:               0.572
##########                            HA_RMSDh:               0.572
##########                            HA_RMSDm:               0.572
##########                          Grid_Score:           33.520161
##########                     Grid_vdw_energy:          -22.836987
##########                      Grid_es_energy:           56.357147
##########           Internal_energy_repulsive:           13.659507

@<TRIPOS>MOLECULE
HXA_200_1MV9
 55 54 1 0 0
SMALL
USER_CHARGES


@<TRIPOS>ATOM
      1 C1         61.2500   46.6543   33.6838 C.3     1  <0>        -0.0618
      2 C2         62.5923   47.2171   33.2196 C.3     1  <0>        -0.0376
      3 C3         57.3439   44.6586   29.9387 C.3     1  <0>        -0.0297
      4 C4         56.1570   45.2694   29.2039 C.3     1  <0>        -0.0098
      5 C5         65.3419   45.4739   34.3716 C.3     1  <0>        -0.0165
      6 C6         60.2150   46.0036   29.9707 C.3     1  <0>        -0.0165
      7 C7         65.3594   45.1313   31.0659 C.3     1  <0>        -0.0165
      8 C8         61.3204   48.3081   27.6996 C.3     1  <0>        -0.0165
      9 C9         64.0063   45.8880   27.5198 C.3     1  <0>        -0.0165
     10 C10        63.6172   47.2394   34.3117 C.2     1  <0>        -0.0879
     11 C11        57.8935   45.5591   30.9959 C.2     1  <0>        -0.0873
     12 C12        64.0739   46.0979   34.8513 C.2     1  <0>        -0.0842
     13 C13        59.0161   46.2821   30.8258 C.2     1  <0>        -0.0842
     14 C14        65.0484   44.3640   33.4179 C.2     1  <0>        -0.0839
     15 C15        59.9674   46.3113   28.5301 C.2     1  <0>        -0.0839
     16 C16        64.5313   44.6561   32.2177 C.2     1  <0>        -0.0839
     17 C17        60.0747   47.5324   27.9965 C.2     1  <0>        -0.0839
     18 C18        64.6562   44.8860   29.7610 C.2     1  <0>        -0.0839
     19 C19        62.5963   47.7524   28.2455 C.2     1  <0>        -0.0839
     20 C20        64.8690   45.7337   28.7396 C.2     1  <0>        -0.0839
     21 C21        63.5294   47.3027   27.3916 C.2     1  <0>        -0.0839
     22 C22        55.0030   45.4808   30.1632 C.2     1  <0>         0.0420
     23 O1         54.2908   46.5591   29.8029 O.co2   1  <0>        -0.5498
     24 O2         54.7715   44.8115   31.1234 O.co2   1  <0>        -0.5498
     25 H1         60.5388   46.6617   32.8447 H       1  <0>         0.0233
     26 H2         61.3882   45.6221   34.0381 H       1  <0>         0.0233
     27 H3         60.8566   47.2738   34.5033 H       1  <0>         0.0233
     28 H4         62.9697   46.5860   32.4015 H       1  <0>         0.0305
     29 H5         62.4347   48.2479   32.8696 H       1  <0>         0.0305
     30 H6         57.0135   43.7242   30.4158 H       1  <0>         0.0311
     31 H7         58.1395   44.4572   29.2062 H       1  <0>         0.0311
     32 H8         56.4547   46.2379   28.7756 H       1  <0>         0.0328
     33 H9         55.8399   44.5900   28.3989 H       1  <0>         0.0328
     34 H10        65.9492   46.2365   33.8619 H       1  <0>         0.0350
     35 H11        65.8950   45.0723   35.2334 H       1  <0>         0.0350
     36 H12        61.0490   46.6280   30.3234 H       1  <0>         0.0350
     37 H13        60.4695   44.9373   30.0618 H       1  <0>         0.0350
     38 H14        65.5409   46.2106   31.1771 H       1  <0>         0.0350
     39 H15        66.3157   44.5879   31.0647 H       1  <0>         0.0350
     40 H16        61.4252   48.3494   26.6054 H       1  <0>         0.0350
     41 H17        61.1904   49.3109   28.1326 H       1  <0>         0.0350
     42 H18        64.5922   45.6225   26.6276 H       1  <0>         0.0350
     43 H19        63.1364   45.2204   27.6063 H       1  <0>         0.0350
     44 H20        63.9938   48.1861   34.6698 H       1  <0>         0.0569
     45 H21        57.3680   45.6332   31.9365 H       1  <0>         0.0569
     46 H22        63.5150   45.6241   35.6447 H       1  <0>         0.0572
     47 H23        59.0594   47.2015   31.3908 H       1  <0>         0.0572
     48 H24        65.2503   43.3391   33.6921 H       1  <0>         0.0572
     49 H25        59.6841   45.4972   27.8795 H       1  <0>         0.0572
     50 H26        63.4668   44.5433   32.0745 H       1  <0>         0.0572
     51 H27        59.1445   48.0215   27.7478 H       1  <0>         0.0572
     52 H28        63.9911   44.0430   29.6455 H       1  <0>         0.0572
     53 H29        62.7650   47.7134   29.3116 H       1  <0>         0.0572
     54 H30        65.7437   46.3641   28.8021 H       1  <0>         0.0572
     55 H31        63.9296   47.9497   26.6250 H       1  <0>         0.0572
@<TRIPOS>BOND
     1     1     2    1
     2     2    10    1
     3     3     4    1
     4     3    11    1
     5     4    22    1
     6     5    12    1
     7     5    14    1
     8     6    13    1
     9     6    15    1
    10     7    16    1
    11     7    18    1
    12     8    17    1
    13     8    19    1
    14     9    20    1
    15     9    21    1
    16    10    12    2
    17    11    13    2
    18    14    16    2
    19    15    17    2
    20    18    20    2
    21    19    21    2
    22    22    23    1
    23    22    24    2
    24     1    25    1
    25     1    26    1
    26     1    27    1
    27     2    28    1
    28     2    29    1
    29     3    30    1
    30     3    31    1
    31     4    32    1
    32     4    33    1
    33     5    34    1
    34     5    35    1
    35     6    36    1
    36     6    37    1
    37     7    38    1
    38     7    39    1
    39     8    40    1
    40     8    41    1
    41     9    42    1
    42     9    43    1
    43    10    44    1
    44    11    45    1
    45    12    46    1
    46    13    47    1
    47    14    48    1
    48    15    49    1
    49    16    50    1
    50    17    51    1
    51    18    52    1
    52    19    53    1
    53    20    54    1
    54    21    55    1
@<TRIPOS>SUBSTRUCTURE
     1 <0>         1 TEMP              0 ****  ****    0 ROOT

