
##########                                Name:          K30_1_3CJO
##########                    Molecular_Weight:             462.535
##########                DOCK_Rotatable_Bonds:                   7
##########                       Formal_Charge:              0.9998
##########                     HBond_Acceptors:                   8
##########                        HBond_Donors:                   2
##########                         Heavy_Atoms:                  33
##########                            HA_RMSDs:               0.371
##########                            HA_RMSDh:               0.371
##########                            HA_RMSDm:               0.371
##########                          Grid_Score:          -79.394737
##########                     Grid_vdw_energy:          -39.506493
##########                      Grid_es_energy:          -39.888245
##########           Internal_energy_repulsive:           46.858051

@<TRIPOS>MOLECULE
K30_1_3CJO
 64 67 1 0 0
SMALL
USER_CHARGES


@<TRIPOS>ATOM
      1 C1         12.2275   21.5264  110.1210 C.3     1  <0>        -0.0430
      2 C2         17.6942   18.4175  110.2184 C.3     1  <0>         0.0050
      3 C3         18.3698   13.2056  113.9812 C.ar    1  <0>        -0.0617
      4 C4         18.8266   14.3932  113.4017 C.ar    1  <0>        -0.0614
      5 C5         17.6331   12.3573  113.1873 C.ar    1  <0>        -0.0614
      6 C6         18.5302   14.6089  112.0092 C.ar    1  <0>        -0.0565
      7 C7         17.3047   12.6219  111.7915 C.ar    1  <0>        -0.0565
      8 C8         22.3503   15.4893  105.2544 C.ar    1  <0>        -0.0237
      9 C9         22.5779   14.5705  106.2760 C.ar    1  <0>        -0.0235
     10 C10        20.1767   16.0431  106.2040 C.ar    1  <0>        -0.0202
     11 C11        14.8896   18.9526  111.4348 C.3     1  <0>         0.0090
     12 C12        13.5671   19.7403  111.3369 C.3     1  <0>        -0.0302
     13 C13        18.9336   13.8915  109.0028 C.3     1  <0>        -0.0167
     14 C14        13.7425   20.0167  108.8489 C.3     1  <0>         0.0015
     15 C15        18.3063   15.9680  108.1978 C.3     1  <0>         0.0241
     16 C16        16.1722   13.7155  109.0231 C.3     1  <0>         0.0698
     17 C17        17.7811   13.7501  111.1646 C.ar    1  <0>        -0.0217
     18 C18        21.1406   16.2144  105.2313 C.ar    1  <0>         0.1238
     19 C19        21.5816   14.3212  107.2469 C.ar    1  <0>         0.1270
     20 C20        20.3736   15.0452  107.2414 C.ar    1  <0>        -0.0048
     21 C21        15.2191   18.3926  110.0191 C.3     1  <0>         0.0680
     22 C22        19.2827   14.8713  108.1478 C.3     1  <0>         0.0051
     23 C23        15.1711   19.4828  108.9377 C.3     1  <0>         0.1588
     24 C24        16.5329   16.3403  110.1131 C.2     1  <0>         0.3056
     25 C25        17.5247   14.1278  109.6103 C.3     1  <0>         0.0875
     26 N1         13.5354   20.7315  110.1661 N.4     1  <0>         0.2352
     27 N2         17.4696   15.6077  109.3587 N.am    1  <0>        -0.2729
     28 N3         16.4671   17.6922  110.0292 N.am    1  <0>        -0.2823
     29 O1         16.1029   12.3469  108.8077 O.3     1  <0>        -0.3926
     30 O2         15.6433   15.7325  110.8045 O.2     1  <0>        -0.2524
     31 F1         20.9756   17.1175  104.2821 F       1  <0>        -0.2055
     32 F2         21.8967   13.3954  108.1473 F       1  <0>        -0.2052
     33 F3         15.9479   20.5166  109.3547 F       1  <0>        -0.2380
     34 H1         12.2497   22.2218  109.2688 H       1  <0>         0.0778
     35 H2         11.3811   20.8333  110.0065 H       1  <0>         0.0778
     36 H3         12.1120   22.0954  111.0553 H       1  <0>         0.0778
     37 H4         18.5420   17.7169  110.1968 H       1  <0>         0.0429
     38 H5         17.8102   19.1580  109.4132 H       1  <0>         0.0429
     39 H6         17.6693   18.9328  111.1899 H       1  <0>         0.0429
     40 H7         18.5867   12.9638  115.0112 H       1  <0>         0.0618
     41 H8         19.3805   15.1209  113.9764 H       1  <0>         0.0618
     42 H9         17.2756   11.4372  113.6255 H       1  <0>         0.0618
     43 H10        18.9164   15.5138  111.5639 H       1  <0>         0.0621
     44 H11        16.6830   11.9275  111.2460 H       1  <0>         0.0621
     45 H12        23.0936   15.6453  104.4866 H       1  <0>         0.0647
     46 H13        23.5205   14.0458  106.3265 H       1  <0>         0.0647
     47 H14        19.2814   16.6471  106.1941 H       1  <0>         0.0650
     48 H15        15.6985   19.6161  111.7745 H       1  <0>         0.0336
     49 H16        14.7823   18.1248  112.1512 H       1  <0>         0.0336
     50 H17        12.7473   19.0198  111.1993 H       1  <0>         0.0815
     51 H18        13.4345   20.3067  112.2705 H       1  <0>         0.0815
     52 H19        18.9267   12.9355  108.4589 H       1  <0>         0.0296
     53 H20        19.6687   13.8593  109.8205 H       1  <0>         0.0296
     54 H21        13.6244   20.7037  107.9980 H       1  <0>         0.0843
     55 H22        13.0175   19.1997  108.7188 H       1  <0>         0.0843
     56 H23        18.7954   16.9437  108.3348 H       1  <0>         0.0471
     57 H24        17.7149   16.0301  107.2724 H       1  <0>         0.0471
     58 H25        15.3784   14.0030  109.7281 H       1  <0>         0.0582
     59 H26        16.0318   14.2320  108.0621 H       1  <0>         0.0582
     60 H27        14.4338   17.6692  109.7546 H       1  <0>         0.0533
     61 H28        20.0997   14.1563  107.9712 H       1  <0>         0.0366
     62 H29        15.5076   19.0768  107.9723 H       1  <0>         0.0724
     63 H30        14.2851   21.3766  110.3136 H       1  <0>         0.2031
     64 H31        15.1928   12.0755  108.7829 H       1  <0>         0.2095
@<TRIPOS>BOND
     1     1    26    1
     2     2    28    1
     3     3     4   ar
     4     3     5   ar
     5     4     6   ar
     6     5     7   ar
     7     6    17   ar
     8     7    17   ar
     9     8     9   ar
    10     8    18   ar
    11     9    19   ar
    12    10    18   ar
    13    10    20   ar
    14    11    12    1
    15    11    21    1
    16    12    26    1
    17    13    22    1
    18    13    25    1
    19    14    23    1
    20    14    26    1
    21    15    22    1
    22    15    27    1
    23    16    25    1
    24    16    29    1
    25    17    25    1
    26    18    31    1
    27    19    20   ar
    28    19    32    1
    29    20    22    1
    30    21    23    1
    31    21    28    1
    32    23    33    1
    33    24    27   am
    34    24    28   am
    35    24    30    2
    36    25    27    1
    37     1    34    1
    38     1    35    1
    39     1    36    1
    40     2    37    1
    41     2    38    1
    42     2    39    1
    43     3    40    1
    44     4    41    1
    45     5    42    1
    46     6    43    1
    47     7    44    1
    48     8    45    1
    49     9    46    1
    50    10    47    1
    51    11    48    1
    52    11    49    1
    53    12    50    1
    54    12    51    1
    55    13    52    1
    56    13    53    1
    57    14    54    1
    58    14    55    1
    59    15    56    1
    60    15    57    1
    61    16    58    1
    62    16    59    1
    63    21    60    1
    64    22    61    1
    65    23    62    1
    66    26    63    1
    67    29    64    1
@<TRIPOS>SUBSTRUCTURE
     1 <0>         1 TEMP              0 ****  ****    0 ROOT

