
##########                                Name:        DAY_301_3BQD
##########                    Molecular_Weight:             489.635
##########                DOCK_Rotatable_Bonds:                   6
##########                       Formal_Charge:              0.9995
##########                     HBond_Acceptors:                   6
##########                        HBond_Donors:                   3
##########                         Heavy_Atoms:                  36
##########                            HA_RMSDs:               0.151
##########                            HA_RMSDh:               0.151
##########                            HA_RMSDm:               0.151
##########                          Grid_Score:          -97.060730
##########                     Grid_vdw_energy:          -42.217747
##########                      Grid_es_energy:          -54.842987
##########           Internal_energy_repulsive:           62.916828

@<TRIPOS>MOLECULE
DAY_301_3BQD
 73 78 1 0 0
SMALL
USER_CHARGES


@<TRIPOS>ATOM
      1 C1         44.6243   26.0042   10.4812 C.3     1  <0>        -0.0594
      2 C2         40.8937   30.5956    5.6241 C.3     1  <0>        -0.0132
      3 C3         40.1681   26.2152   11.0597 C.3     1  <0>        -0.0561
      4 C4         37.5980   29.6530    8.7846 C.3     1  <0>        -0.0493
      5 C5         37.4651   36.5043    3.7329 C.ar    1  <0>        -0.0616
      6 C6         37.5740   35.0642    4.0948 C.ar    1  <0>        -0.0594
      7 C7         37.3817   37.3274    4.9304 C.ar    1  <0>        -0.0594
      8 C8         37.6217   34.4990    5.3344 C.ar    1  <0>        -0.0318
      9 C9         37.4229   36.6241    6.3286 C.ar    1  <0>        -0.0318
     10 C10        42.5711   26.6588    9.3454 C.3     1  <0>        -0.0430
     11 C11        40.6393   28.6085   12.1371 C.3     1  <0>        -0.0178
     12 C12        38.1814   31.6680    9.8844 C.3     1  <0>         0.0097
     13 C13        37.1517   34.1593   10.0997 C.3     1  <0>         0.1306
     14 C14        41.1165   29.0313    7.6131 C.2     1  <0>        -0.0232
     15 C15        38.9901   32.1915    7.1843 C.2     1  <0>         0.0519
     16 C16        41.8614   26.4473   14.4875 C.3     1  <0>         0.1052
     17 C17        37.5644   35.1962    6.5538 C.ar    1  <0>         0.0908
     18 C18        43.1062   25.9899   10.5925 C.3     1  <0>        -0.0071
     19 C19        41.7670   27.9201    9.8903 C.3     1  <0>        -0.0209
     20 C20        39.5789   29.3635   11.3585 C.3     1  <0>         0.0608
     21 C21        40.6373   28.5593    9.0306 C.3     1  <0>         0.0089
     22 C22        40.0605   29.7953    9.9032 C.3     1  <0>         0.0113
     23 C23        40.4541   30.2012    6.9253 C.2     1  <0>         0.0239
     24 C24        37.8733   32.8907    9.4235 C.2     1  <0>         0.0444
     25 C25        39.3055   30.9589    7.7124 C.2     1  <0>         0.0437
     26 C26        38.2249   33.2606    8.0155 C.2     1  <0>         0.1604
     27 C27        42.3643   25.9154   13.1176 C.2     1  <0>         0.1904
     28 C28        41.2632   27.3905   11.3220 C.3     1  <0>         0.0101
     29 C29        38.8775   30.5305    9.1436 C.3     1  <0>         0.0340
     30 C30        42.5873   26.8383   11.8392 C.3     1  <0>         0.1340
     31 N1         37.2319   34.9982    8.7706 N.2     1  <0>        -0.1299
     32 N2         37.5646   34.4990    7.6038 N.pl3   1  <0>        -0.1199
     33 O1         41.4280   25.4230   15.3682 O.3     1  <0>        -0.3874
     34 O2         38.4257   28.5234   11.3292 O.3     1  <0>        -0.3914
     35 O3         43.5609   27.9079   12.1251 O.3     1  <0>        -0.3802
     36 O4         42.5939   24.7144   13.0538 O.2     1  <0>        -0.2919
     37 H1         45.0622   25.5260   11.3699 H       1  <0>         0.0233
     38 H2         44.9309   25.4531    9.5799 H       1  <0>         0.0233
     39 H3         44.9771   27.0439   10.4132 H       1  <0>         0.0233
     40 H4         40.3026   31.4582    5.2826 H       1  <0>         0.0339
     41 H5         41.9573   30.8732    5.6650 H       1  <0>         0.0339
     42 H6         40.7598   29.7588    4.9227 H       1  <0>         0.0339
     43 H7         40.6373   25.3954   10.4960 H       1  <0>         0.0236
     44 H8         39.8015   25.8339   12.0242 H       1  <0>         0.0236
     45 H9         39.3252   26.6221   10.4817 H       1  <0>         0.0236
     46 H10        37.9114   28.7571    8.2286 H       1  <0>         0.0243
     47 H11        37.0896   29.3497    9.7117 H       1  <0>         0.0243
     48 H12        36.9088   30.2460    8.1655 H       1  <0>         0.0243
     49 H13        37.4501   36.8851    2.7224 H       1  <0>         0.0618
     50 H14        37.6217   34.3755    3.2643 H       1  <0>         0.0618
     51 H15        37.2933   38.4012    4.8560 H       1  <0>         0.0618
     52 H16        37.7111   33.4239    5.3839 H       1  <0>         0.0642
     53 H17        37.3388   37.2552    7.2010 H       1  <0>         0.0642
     54 H18        43.3882   26.9659    8.6761 H       1  <0>         0.0272
     55 H19        41.9142   25.9811    8.7804 H       1  <0>         0.0272
     56 H20        41.4501   29.3094   12.3848 H       1  <0>         0.0297
     57 H21        40.1776   28.2108   13.0528 H       1  <0>         0.0297
     58 H22        38.8487   31.8713   10.7350 H       1  <0>         0.0382
     59 H23        37.2059   31.2405   10.1598 H       1  <0>         0.0382
     60 H24        36.1382   33.9788   10.4875 H       1  <0>         0.0706
     61 H25        37.6692   34.5935   10.9678 H       1  <0>         0.0706
     62 H26        41.9287   28.5140    7.1240 H       1  <0>         0.0961
     63 H27        39.2809   32.4209    6.1697 H       1  <0>         0.1094
     64 H28        42.6897   26.9865   14.9705 H       1  <0>         0.0637
     65 H29        41.0124   27.1218   14.3023 H       1  <0>         0.0637
     66 H30        42.7697   24.9499   10.7149 H       1  <0>         0.0330
     67 H31        42.4275   28.7998    9.8951 H       1  <0>         0.0317
     68 H32        39.3520   30.3198   11.8524 H       1  <0>         0.0597
     69 H33        39.8624   27.8089    8.8151 H       1  <0>         0.0408
     70 H34        40.9032   30.4908   10.0298 H       1  <0>         0.0349
     71 H35        41.6294   24.5745   14.9913 H       1  <0>         0.2100
     72 H36        37.7226   28.9660   10.8685 H       1  <0>         0.2098
     73 H37        43.2666   28.4129   12.8739 H       1  <0>         0.2108
@<TRIPOS>BOND
     1     1    18    1
     2     2    23    1
     3     3    28    1
     4     4    29    1
     5     5     6   ar
     6     5     7   ar
     7     6     8   ar
     8     7     9   ar
     9     8    17   ar
    10     9    17   ar
    11    10    18    1
    12    10    19    1
    13    11    20    1
    14    11    28    1
    15    12    24    1
    16    12    29    1
    17    13    24    1
    18    13    31    1
    19    14    21    1
    20    14    23    2
    21    15    25    2
    22    15    26    1
    23    16    27    1
    24    16    33    1
    25    17    32    1
    26    18    30    1
    27    19    21    1
    28    19    28    1
    29    20    22    1
    30    20    34    1
    31    21    22    1
    32    22    29    1
    33    23    25    1
    34    24    26    2
    35    25    29    1
    36    26    32    1
    37    27    30    1
    38    27    36    2
    39    28    30    1
    40    30    35    1
    41    31    32    2
    42     1    37    1
    43     1    38    1
    44     1    39    1
    45     2    40    1
    46     2    41    1
    47     2    42    1
    48     3    43    1
    49     3    44    1
    50     3    45    1
    51     4    46    1
    52     4    47    1
    53     4    48    1
    54     5    49    1
    55     6    50    1
    56     7    51    1
    57     8    52    1
    58     9    53    1
    59    10    54    1
    60    10    55    1
    61    11    56    1
    62    11    57    1
    63    12    58    1
    64    12    59    1
    65    13    60    1
    66    13    61    1
    67    14    62    1
    68    15    63    1
    69    16    64    1
    70    16    65    1
    71    18    66    1
    72    19    67    1
    73    20    68    1
    74    21    69    1
    75    22    70    1
    76    33    71    1
    77    34    72    1
    78    35    73    1
@<TRIPOS>SUBSTRUCTURE
     1 <0>         1 TEMP              0 ****  ****    0 ROOT

