
##########                                Name:        LLX_400_3MAX
##########                    Molecular_Weight:             288.349
##########                DOCK_Rotatable_Bonds:                   4
##########                       Formal_Charge:         0.000500143
##########                     HBond_Acceptors:                   3
##########                        HBond_Donors:                   3
##########                         Heavy_Atoms:                  22
##########                            HA_RMSDs:               0.221
##########                            HA_RMSDh:               0.221
##########                            HA_RMSDm:               0.221
##########                          Grid_Score:          -38.484779
##########                     Grid_vdw_energy:          -37.864464
##########                      Grid_es_energy:           -0.620317
##########           Internal_energy_repulsive:           14.072053

@<TRIPOS>MOLECULE
LLX_400_3MAX
 38 40 1 0 0
SMALL
USER_CHARGES


@<TRIPOS>ATOM
      1 C1         63.1815   28.1469    6.2317 C.ar    1  <0>        -0.0617
      2 C2         71.6639   31.9460   -1.2304 C.ar    1  <0>        -0.0617
      3 C3         64.5318   28.0070    5.9038 C.ar    1  <0>        -0.0612
      4 C4         62.2486   28.3955    5.2300 C.ar    1  <0>        -0.0612
      5 C5         71.3417   30.6395   -0.9026 C.ar    1  <0>        -0.0610
      6 C6         70.6572   32.8985   -1.3404 C.ar    1  <0>        -0.0610
      7 C7         64.9681   28.1018    4.5835 C.ar    1  <0>        -0.0540
      8 C8         62.6739   28.4957    3.9079 C.ar    1  <0>        -0.0540
      9 C9         70.0207   30.2841   -0.6928 C.ar    1  <0>        -0.0496
     10 C10        69.3276   32.5545   -1.1255 C.ar    1  <0>        -0.0496
     11 C11        63.6689   28.0999    1.0713 C.ar    1  <0>        -0.0522
     12 C12        64.0817   28.2624   -0.2429 C.ar    1  <0>        -0.0387
     13 C13        65.7369   29.0797    1.8592 C.ar    1  <0>        -0.0310
     14 C14        64.0386   28.3437    3.5615 C.ar    1  <0>        -0.0178
     15 C15        69.0015   31.2271   -0.8066 C.ar    1  <0>         0.0370
     16 C16        64.4875   28.4904    2.1430 C.ar    1  <0>        -0.0160
     17 C17        65.3326   28.8196   -0.5257 C.ar    1  <0>         0.0461
     18 C18        66.1464   29.2376    0.5399 C.ar    1  <0>         0.0551
     19 C19        67.6027   30.7999   -0.5619 C.2     1  <0>         0.2483
     20 N1         65.7454   28.9919   -1.8647 N.pl3   1  <0>        -0.3565
     21 N2         67.4236   29.7553    0.2625 N.am    1  <0>        -0.2799
     22 O1         66.6287   31.3381   -1.0612 O.2     1  <0>        -0.2699
     23 H1         62.8623   28.0625    7.2601 H       1  <0>         0.0618
     24 H2         72.6937   32.2239   -1.4001 H       1  <0>         0.0618
     25 H3         65.2512   27.8219    6.6877 H       1  <0>         0.0618
     26 H4         61.2031   28.5097    5.4757 H       1  <0>         0.0618
     27 H5         72.1215   29.8979   -0.8108 H       1  <0>         0.0618
     28 H6         70.9109   33.9167   -1.5955 H       1  <0>         0.0618
     29 H7         66.0163   27.9897    4.3486 H       1  <0>         0.0624
     30 H8         61.9492   28.6931    3.1319 H       1  <0>         0.0624
     31 H9         69.7769   29.2633   -0.4378 H       1  <0>         0.0625
     32 H10        68.5522   33.3022   -1.2033 H       1  <0>         0.0625
     33 H11        62.7010   27.6655    1.2737 H       1  <0>         0.0624
     34 H12        63.4340   27.9572   -1.0515 H       1  <0>         0.0637
     35 H13        66.3752   29.4082    2.6661 H       1  <0>         0.0643
     36 H14        66.6581   29.4002   -1.8827 H       1  <0>         0.1424
     37 H15        65.7687   28.1034   -2.3230 H       1  <0>         0.1424
     38 H16        68.2221   29.3332    0.6917 H       1  <0>         0.1552
@<TRIPOS>BOND
     1     1     3   ar
     2     1     4   ar
     3     2     5   ar
     4     2     6   ar
     5     3     7   ar
     6     4     8   ar
     7     5     9   ar
     8     6    10   ar
     9     7    14   ar
    10     8    14   ar
    11     9    15   ar
    12    10    15   ar
    13    11    12   ar
    14    11    16   ar
    15    12    17   ar
    16    13    16   ar
    17    13    18   ar
    18    14    16    1
    19    15    19    1
    20    17    18   ar
    21    17    20    1
    22    18    21    1
    23    19    21   am
    24    19    22    2
    25     1    23    1
    26     2    24    1
    27     3    25    1
    28     4    26    1
    29     5    27    1
    30     6    28    1
    31     7    29    1
    32     8    30    1
    33     9    31    1
    34    10    32    1
    35    11    33    1
    36    12    34    1
    37    13    35    1
    38    20    36    1
    39    20    37    1
    40    21    38    1
@<TRIPOS>SUBSTRUCTURE
     1 <0>         1 TEMP              0 ****  ****    0 ROOT

