
##########                                Name:               *****
##########                    Molecular_Weight:             408.676
##########                DOCK_Rotatable_Bonds:                   6
##########                       Formal_Charge:              1.9998
##########                     HBond_Acceptors:                   6
##########                        HBond_Donors:                   3
##########                         Heavy_Atoms:                  27
##########                            HA_RMSDs:               7.170
##########                            HA_RMSDh:               3.543
##########                            HA_RMSDm:               2.781
##########                          Grid_Score:         -168.160278
##########                     Grid_vdw_energy:          -44.425110
##########                      Grid_es_energy:         -123.735161
##########           Internal_energy_repulsive:           15.689548

@<TRIPOS>MOLECULE
*****
 63 66 1 0 0
SMALL
USER_CHARGES


@<TRIPOS>ATOM
      1 C1         21.0415  -13.7368   74.2171 C.3     1  <0>        -0.0411
      2 N1         19.5253  -11.8437   74.4162 N.pl3   1  <0>        -0.3043
      3 S1         17.1379  -10.6636   73.5769 S.3     1  <0>         0.0374
      4 C2         20.7085  -12.3404   73.7203 C.3     1  <0>         0.0597
      5 N2         19.0501  -11.7401   72.2778 N.pl3   1  <0>        -0.1644
      6 S2         19.2190  -10.0813   69.1781 S.3     1  <0>        -0.0181
      7 C3         21.8532  -11.3569   73.9223 C.3     1  <0>        -0.0411
      8 N3         16.8752   -9.4512   68.3949 N.pl3   1  <0>        -0.1947
      9 C4         18.6068  -11.5345   73.4914 C.cat   1  <0>         0.2163
     10 N4         18.1243   -7.6833   69.2957 N.pl3   1  <0>        -0.2839
     11 C5         17.0187  -10.7327   71.8373 C.2     1  <0>         0.1434
     12 C6         20.3455  -12.3882   72.2296 C.3     1  <0>         0.0975
     13 C7         18.1808  -11.3496   71.3141 C.2     1  <0>         0.2141
     14 C8         18.4693  -11.5389   69.8397 C.3     1  <0>         0.1154
     15 C9         17.9915   -8.9700   68.9532 C.cat   1  <0>         0.2958
     16 C10        15.6134   -8.7953   68.0852 C.3     1  <0>         0.1487
     17 C11        15.7475   -7.3386   67.6514 C.3     1  <0>         0.0087
     18 C12        14.4172   -6.8700   67.0613 C.3     1  <0>        -0.0471
     19 C13        13.2853   -7.0100   68.0784 C.3     1  <0>        -0.0526
     20 C14        13.1649   -8.4306   68.6296 C.3     1  <0>        -0.0471
     21 C15        14.4981   -9.0041   69.1091 C.3     1  <0>         0.0087
     22 C16        19.3449   -6.9814   69.6877 C.3     1  <0>         0.0262
     23 C17        20.0001   -7.4331   70.9917 C.3     1  <0>        -0.0344
     24 C18        21.2017   -6.5564   71.3428 C.3     1  <0>        -0.0514
     25 C19        22.2113   -6.4779   70.1967 C.3     1  <0>        -0.0529
     26 C20        21.5510   -5.9876   68.9114 C.3     1  <0>        -0.0514
     27 C21        20.3413   -6.8445   68.5375 C.3     1  <0>        -0.0344
     28 H1         20.2743  -13.4113   71.8615 H       1  <0>         0.0673
     29 H2         21.0521  -11.8071   71.6363 H       1  <0>         0.0673
     30 H3         19.1457  -12.3837   69.7103 H       1  <0>         0.0621
     31 H4         17.5370  -11.7381   69.3114 H       1  <0>         0.0621
     32 H5         17.2792   -7.1302   69.2821 H       1  <0>         0.1523
     33 H6         19.0190   -5.9610   69.8870 H       1  <0>         0.0499
     34 H7         19.8348   -6.3842   67.6891 H       1  <0>         0.0283
     35 H8         20.6863   -7.8368   68.2472 H       1  <0>         0.0283
     36 H9         22.2792   -6.0305   68.1014 H       1  <0>         0.0266
     37 H10        21.2289   -4.9556   69.0470 H       1  <0>         0.0266
     38 H11        23.0087   -5.7873   70.4720 H       1  <0>         0.0265
     39 H12        22.6367   -7.4669   70.0257 H       1  <0>         0.0265
     40 H13        21.6970   -6.9737   72.2197 H       1  <0>         0.0266
     41 H14        20.8517   -5.5513   71.5774 H       1  <0>         0.0266
     42 H15        20.3341   -8.4654   70.8823 H       1  <0>         0.0283
     43 H16        19.2687   -7.3768   71.7981 H       1  <0>         0.0283
     44 H17        16.9140  -10.4294   68.1476 H       1  <0>         0.4389
     45 H18        15.2570   -9.3083   67.1922 H       1  <0>         0.1056
     46 H19        14.7785   -8.5111   70.0393 H       1  <0>         0.0329
     47 H20        14.3804  -10.0724   69.2937 H       1  <0>         0.0329
     48 H21        12.7733   -9.0751   67.8432 H       1  <0>         0.0267
     49 H22        12.4628   -8.4265   69.4639 H       1  <0>         0.0267
     50 H23        12.3457   -6.7422   67.5948 H       1  <0>         0.0265
     51 H24        13.4656   -6.3231   68.9054 H       1  <0>         0.0265
     52 H25        14.5062   -5.8232   66.7696 H       1  <0>         0.0267
     53 H26        14.1849   -7.4694   66.1807 H       1  <0>         0.0267
     54 H27        16.0011   -6.7221   68.5141 H       1  <0>         0.0329
     55 H28        16.5313   -7.2532   66.8983 H       1  <0>         0.0329
     56 H29        16.1892  -10.3631   71.2521 H       1  <0>         0.1770
     57 H30        19.4184  -11.7505   75.4163 H       1  <0>         0.1497
     58 H31        21.2977  -13.6953   75.2760 H       1  <0>         0.0251
     59 H32        21.8869  -14.1309   73.6537 H       1  <0>         0.0251
     60 H33        20.1781  -14.3877   74.0786 H       1  <0>         0.0251
     61 H34        22.1171  -11.3176   74.9788 H       1  <0>         0.0251
     62 H35        22.7178  -11.6829   73.3445 H       1  <0>         0.0251
     63 H36        21.5446  -10.3668   73.5880 H       1  <0>         0.0251
@<TRIPOS>BOND
     1     7    61    1
     2     1    58    1
     3     7    62    1
     4     7    63    1
     5     4     7    1
     6     2    57    1
     7     1    59    1
     8     1     4    1
     9     1    60    1
    10    25    38    1
    11     2     4    1
    12     4    12    1
    13     2     9    1
    14    24    40    1
    15    25    39    1
    16    24    25    1
    17    25    26    1
    18    24    41    1
    19    23    24    1
    20     3     9    1
    21     5     9    2
    22    12    29    1
    23    12    28    1
    24     5    12    1
    25    26    37    1
    26    26    36    1
    27    26    27    1
    28     3    11    1
    29     5    13    1
    30    23    42    1
    31    23    43    1
    32    22    23    1
    33    27    35    1
    34    22    27    1
    35    27    34    1
    36    22    33    1
    37    11    13    2
    38    13    14    1
    39    10    22    1
    40    11    56    1
    41    14    30    1
    42     6    14    1
    43    14    31    1
    44     6    15    1
    45    10    15    1
    46    10    32    1
    47    21    47    1
    48     8    15    2
    49    21    46    1
    50    20    21    1
    51    16    21    1
    52    20    49    1
    53     8    44    1
    54     8    16    1
    55    20    48    1
    56    19    20    1
    57    16    45    1
    58    16    17    1
    59    17    54    1
    60    19    51    1
    61    19    50    1
    62    18    19    1
    63    17    55    1
    64    17    18    1
    65    18    53    1
    66    18    52    1
@<TRIPOS>SUBSTRUCTURE
     1 <0>         1 TEMP              0 ****  ****    0 ROOT

