
##########                                Name:               *****
##########                    Molecular_Weight:             408.676
##########                DOCK_Rotatable_Bonds:                   6
##########                       Formal_Charge:              1.9998
##########                     HBond_Acceptors:                   6
##########                        HBond_Donors:                   3
##########                         Heavy_Atoms:                  27
##########                            HA_RMSDs:               5.133
##########                            HA_RMSDh:               4.031
##########                            HA_RMSDm:               2.912
##########                          Grid_Score:         -164.356506
##########                     Grid_vdw_energy:          -43.163849
##########                      Grid_es_energy:         -121.192665
##########           Internal_energy_repulsive:           14.222952

@<TRIPOS>MOLECULE
*****
 63 66 1 0 0
SMALL
USER_CHARGES


@<TRIPOS>ATOM
      1 C1         14.8992   -5.8940   66.4102 C.3     1  <0>        -0.0411
      2 N1         15.3796   -5.8284   68.7951 N.pl3   1  <0>        -0.3043
      3 S1         17.3392   -5.7928   70.7839 S.3     1  <0>         0.0374
      4 C2         15.0922   -6.7166   67.6728 C.3     1  <0>         0.0597
      5 N2         17.0572   -7.2378   68.7017 N.pl3   1  <0>        -0.1644
      6 S2         18.2971  -10.3903   69.2567 S.3     1  <0>        -0.0181
      7 C3         13.8755   -7.5672   68.0110 C.3     1  <0>        -0.0411
      8 N3         20.0212  -10.2461   71.1305 N.pl3   1  <0>        -0.1947
      9 C4         16.5540   -6.2010   69.3210 C.cat   1  <0>         0.2163
     10 N4         17.8898  -10.9565   71.8016 N.pl3   1  <0>        -0.2839
     11 C5         18.5498   -7.0043   70.4490 C.2     1  <0>         0.1434
     12 C6         16.3161   -7.6303   67.5196 C.3     1  <0>         0.0975
     13 C7         18.1994   -7.6997   69.2665 C.2     1  <0>         0.2141
     14 C8         18.9767   -8.8619   68.6851 C.3     1  <0>         0.1154
     15 C9         18.7460  -10.5456   70.8588 C.cat   1  <0>         0.2958
     16 C10        20.7416  -10.2342   72.3950 C.3     1  <0>         0.1487
     17 C11        20.4291  -11.4127   73.3123 C.3     1  <0>         0.0087
     18 C12        21.4608  -11.4537   74.4399 C.3     1  <0>        -0.0471
     19 C13        21.4517  -10.1520   75.2404 C.3     1  <0>        -0.0526
     20 C14        21.6586   -8.9204   74.3592 C.3     1  <0>        -0.0471
     21 C15        20.7436   -8.8969   73.1350 C.3     1  <0>         0.0087
     22 C16        16.7295  -10.2428   72.3312 C.3     1  <0>         0.0262
     23 C17        15.6900   -9.7827   71.3105 C.3     1  <0>        -0.0344
     24 C18        14.5851   -8.9615   71.9741 C.3     1  <0>        -0.0514
     25 C19        13.9412   -9.7037   73.1461 C.3     1  <0>        -0.0529
     26 C20        14.9864  -10.1221   74.1762 C.3     1  <0>        -0.0514
     27 C21        16.1082  -10.9426   73.5390 C.3     1  <0>        -0.0344
     28 H1         16.8691   -7.4189   66.6049 H       1  <0>         0.0673
     29 H2         16.0284   -8.6810   67.5690 H       1  <0>         0.0673
     30 H3         18.9196   -8.8255   67.5973 H       1  <0>         0.0621
     31 H4         20.0192   -8.7909   68.9949 H       1  <0>         0.0621
     32 H5         18.0668  -11.8697   72.1952 H       1  <0>         0.1523
     33 H6         17.1407   -9.3183   72.7354 H       1  <0>         0.0499
     34 H7         16.8859  -11.1105   74.2840 H       1  <0>         0.0283
     35 H8         15.7072  -11.9057   73.2235 H       1  <0>         0.0283
     36 H9         14.5026  -10.7224   74.9468 H       1  <0>         0.0266
     37 H10        15.4128   -9.2302   74.6344 H       1  <0>         0.0266
     38 H11        13.2132   -9.0487   73.6250 H       1  <0>         0.0265
     39 H12        13.4326  -10.5920   72.7715 H       1  <0>         0.0265
     40 H13        13.8169   -8.7418   71.2326 H       1  <0>         0.0266
     41 H14        15.0076   -8.0244   72.3361 H       1  <0>         0.0266
     42 H15        15.2453  -10.6586   70.8371 H       1  <0>         0.0283
     43 H16        16.1799   -9.1745   70.5501 H       1  <0>         0.0283
     44 H17        20.5746   -9.9859   70.3271 H       1  <0>         0.4389
     45 H18        21.7830  -10.3851   72.1114 H       1  <0>         0.1056
     46 H19        19.7279   -8.6736   73.4598 H       1  <0>         0.0329
     47 H20        21.0798   -8.1143   72.4541 H       1  <0>         0.0329
     48 H21        22.6934   -8.9083   74.0185 H       1  <0>         0.0267
     49 H22        21.4733   -8.0260   74.9547 H       1  <0>         0.0267
     50 H23        22.2518  -10.1909   75.9799 H       1  <0>         0.0265
     51 H24        20.4964  -10.0613   75.7577 H       1  <0>         0.0265
     52 H25        21.2262  -12.2836   75.1071 H       1  <0>         0.0267
     53 H26        22.4523  -11.6058   74.0130 H       1  <0>         0.0267
     54 H27        19.4314  -11.2924   73.7351 H       1  <0>         0.0329
     55 H28        20.4747  -12.3407   72.7418 H       1  <0>         0.0329
     56 H29        19.4279   -7.1936   71.0493 H       1  <0>         0.1770
     57 H30        14.7971   -5.0687   69.1170 H       1  <0>         0.1497
     58 H31        14.0291   -5.2475   66.5262 H       1  <0>         0.0251
     59 H32        14.7462   -6.5608   65.5620 H       1  <0>         0.0251
     60 H33        15.7844   -5.2822   66.2358 H       1  <0>         0.0251
     61 H34        13.0019   -6.9253   68.1210 H       1  <0>         0.0251
     62 H35        13.7000   -8.2843   67.2094 H       1  <0>         0.0251
     63 H36        14.0538   -8.1010   68.9441 H       1  <0>         0.0251
@<TRIPOS>BOND
     1     7    61    1
     2     1    58    1
     3     7    62    1
     4     7    63    1
     5     4     7    1
     6     2    57    1
     7     1    59    1
     8     1     4    1
     9     1    60    1
    10    25    38    1
    11     2     4    1
    12     4    12    1
    13     2     9    1
    14    24    40    1
    15    25    39    1
    16    24    25    1
    17    25    26    1
    18    24    41    1
    19    23    24    1
    20     3     9    1
    21     5     9    2
    22    12    29    1
    23    12    28    1
    24     5    12    1
    25    26    37    1
    26    26    36    1
    27    26    27    1
    28     3    11    1
    29     5    13    1
    30    23    42    1
    31    23    43    1
    32    22    23    1
    33    27    35    1
    34    22    27    1
    35    27    34    1
    36    22    33    1
    37    11    13    2
    38    13    14    1
    39    10    22    1
    40    11    56    1
    41    14    30    1
    42     6    14    1
    43    14    31    1
    44     6    15    1
    45    10    15    1
    46    10    32    1
    47    21    47    1
    48     8    15    2
    49    21    46    1
    50    20    21    1
    51    16    21    1
    52    20    49    1
    53     8    44    1
    54     8    16    1
    55    20    48    1
    56    19    20    1
    57    16    45    1
    58    16    17    1
    59    17    54    1
    60    19    51    1
    61    19    50    1
    62    18    19    1
    63    17    55    1
    64    17    18    1
    65    18    53    1
    66    18    52    1
@<TRIPOS>SUBSTRUCTURE
     1 <0>         1 TEMP              0 ****  ****    0 ROOT

