
##########                                Name:               *****
##########                    Molecular_Weight:             408.676
##########                DOCK_Rotatable_Bonds:                   6
##########                       Formal_Charge:              1.9998
##########                     HBond_Acceptors:                   6
##########                        HBond_Donors:                   3
##########                         Heavy_Atoms:                  27
##########                            HA_RMSDs:               5.437
##########                            HA_RMSDh:               4.185
##########                            HA_RMSDm:               3.186
##########                          Grid_Score:         -165.605148
##########                     Grid_vdw_energy:          -48.296101
##########                      Grid_es_energy:         -117.309052
##########           Internal_energy_repulsive:           17.528997

@<TRIPOS>MOLECULE
*****
 63 66 1 0 0
SMALL
USER_CHARGES


@<TRIPOS>ATOM
      1 C1         22.9729   -5.3649   68.1098 C.3     1  <0>        -0.0411
      2 N1         21.4387   -7.2538   68.0777 N.pl3   1  <0>        -0.3043
      3 S1         18.9103   -8.2225   68.7601 S.3     1  <0>         0.0374
      4 C2         22.5181   -6.6224   68.8308 C.3     1  <0>         0.0597
      5 N2         20.6377   -6.8973   70.0878 N.pl3   1  <0>        -0.1644
      6 S2         19.9515   -7.9270   73.4938 S.3     1  <0>        -0.0181
      7 C3         23.6445   -7.6286   69.0233 C.3     1  <0>        -0.0411
      8 N3         17.4483   -7.8026   73.9654 N.pl3   1  <0>        -0.1947
      9 C4         20.3788   -7.3565   68.8904 C.cat   1  <0>         0.2163
     10 N4         18.3035   -9.9736   73.7351 N.pl3   1  <0>        -0.2839
     11 C5         18.5283   -7.7832   70.4052 C.2     1  <0>         0.1434
     12 C6         21.9327   -6.2565   70.2018 C.3     1  <0>         0.0975
     13 C7         19.6176   -7.0711   70.9630 C.2     1  <0>         0.2141
     14 C8         19.6830   -6.5718   72.3911 C.3     1  <0>         0.1154
     15 C9         18.4633   -8.6450   73.7430 C.cat   1  <0>         0.2958
     16 C10        16.0333   -8.0630   74.1851 C.3     1  <0>         0.1487
     17 C11        15.6715   -8.4191   75.6239 C.3     1  <0>         0.0087
     18 C12        14.1525   -8.3566   75.7858 C.3     1  <0>        -0.0471
     19 C13        13.4572   -9.3151   74.8198 C.3     1  <0>        -0.0526
     20 C14        13.8589   -9.0748   73.3647 C.3     1  <0>        -0.0471
     21 C15        15.3719   -8.9897   73.1654 C.3     1  <0>         0.0087
     22 C16        19.0024  -10.9556   72.9086 C.3     1  <0>         0.0262
     23 C17        19.2950  -10.5457   71.4663 C.3     1  <0>        -0.0344
     24 C18        19.9310  -11.6919   70.6807 C.3     1  <0>        -0.0514
     25 C19        21.1744  -12.2467   71.3774 C.3     1  <0>        -0.0529
     26 C20        20.8579  -12.6886   72.8032 C.3     1  <0>        -0.0514
     27 C21        20.2156  -11.5617   73.6125 C.3     1  <0>        -0.0344
     28 H1         21.8423   -5.1782   70.3303 H       1  <0>         0.0673
     29 H2         22.5187   -6.6989   71.0080 H       1  <0>         0.0673
     30 H3         20.5028   -5.8601   72.4869 H       1  <0>         0.0621
     31 H4         18.7447   -6.0788   72.6452 H       1  <0>         0.0621
     32 H5         17.6167  -10.3424   74.3774 H       1  <0>         0.1523
     33 H6         18.2998  -11.7835   72.8182 H       1  <0>         0.0499
     34 H7         19.8978  -11.9597   74.5762 H       1  <0>         0.0283
     35 H8         20.9558  -10.7795   73.7800 H       1  <0>         0.0283
     36 H9         21.7832  -12.9929   73.2925 H       1  <0>         0.0266
     37 H10        20.1760  -13.5378   72.7705 H       1  <0>         0.0266
     38 H11        21.5451  -13.1034   70.8142 H       1  <0>         0.0265
     39 H12        21.9441  -11.4753   71.4044 H       1  <0>         0.0265
     40 H13        20.2147  -11.3267   69.6936 H       1  <0>         0.0266
     41 H14        19.2006  -12.4927   70.5667 H       1  <0>         0.0266
     42 H15        19.9786   -9.6961   71.4703 H       1  <0>         0.0283
     43 H16        18.3635  -10.2535   70.9813 H       1  <0>         0.0283
     44 H17        17.7055   -6.8264   73.9842 H       1  <0>         0.4389
     45 H18        15.5547   -7.0978   74.0202 H       1  <0>         0.1056
     46 H19        15.7968   -9.9874   73.2700 H       1  <0>         0.0329
     47 H20        15.5784   -8.6183   72.1611 H       1  <0>         0.0329
     48 H21        13.4124   -8.1381   73.0324 H       1  <0>         0.0267
     49 H22        13.4681   -9.8880   72.7524 H       1  <0>         0.0267
     50 H23        12.3790   -9.1821   74.9110 H       1  <0>         0.0265
     51 H24        13.7114  -10.3393   75.0932 H       1  <0>         0.0265
     52 H25        13.8919   -8.6306   76.8084 H       1  <0>         0.0267
     53 H26        13.8127   -7.3395   75.5891 H       1  <0>         0.0267
     54 H27        16.0211   -9.4267   75.8501 H       1  <0>         0.0329
     55 H28        16.1408   -7.7082   76.3044 H       1  <0>         0.0329
     56 H29        17.6061   -8.0176   70.9170 H       1  <0>         0.1770
     57 H30        21.4832   -7.5583   67.1156 H       1  <0>         0.1497
     58 H31        23.3868   -5.6322   67.1374 H       1  <0>         0.0251
     59 H32        23.7354   -4.8613   68.7036 H       1  <0>         0.0251
     60 H33        22.1221   -4.6977   67.9704 H       1  <0>         0.0251
     61 H34        24.0657   -7.8932   68.0538 H       1  <0>         0.0251
     62 H35        24.4213   -7.1885   69.6483 H       1  <0>         0.0251
     63 H36        23.2531   -8.5238   69.5059 H       1  <0>         0.0251
@<TRIPOS>BOND
     1     7    61    1
     2     1    58    1
     3     7    62    1
     4     7    63    1
     5     4     7    1
     6     2    57    1
     7     1    59    1
     8     1     4    1
     9     1    60    1
    10    25    38    1
    11     2     4    1
    12     4    12    1
    13     2     9    1
    14    24    40    1
    15    25    39    1
    16    24    25    1
    17    25    26    1
    18    24    41    1
    19    23    24    1
    20     3     9    1
    21     5     9    2
    22    12    29    1
    23    12    28    1
    24     5    12    1
    25    26    37    1
    26    26    36    1
    27    26    27    1
    28     3    11    1
    29     5    13    1
    30    23    42    1
    31    23    43    1
    32    22    23    1
    33    27    35    1
    34    22    27    1
    35    27    34    1
    36    22    33    1
    37    11    13    2
    38    13    14    1
    39    10    22    1
    40    11    56    1
    41    14    30    1
    42     6    14    1
    43    14    31    1
    44     6    15    1
    45    10    15    1
    46    10    32    1
    47    21    47    1
    48     8    15    2
    49    21    46    1
    50    20    21    1
    51    16    21    1
    52    20    49    1
    53     8    44    1
    54     8    16    1
    55    20    48    1
    56    19    20    1
    57    16    45    1
    58    16    17    1
    59    17    54    1
    60    19    51    1
    61    19    50    1
    62    18    19    1
    63    17    55    1
    64    17    18    1
    65    18    53    1
    66    18    52    1
@<TRIPOS>SUBSTRUCTURE
     1 <0>         1 TEMP              0 ****  ****    0 ROOT

