
##########                                Name:               *****
##########                    Molecular_Weight:             408.676
##########                DOCK_Rotatable_Bonds:                   6
##########                       Formal_Charge:              1.9998
##########                     HBond_Acceptors:                   6
##########                        HBond_Donors:                   3
##########                         Heavy_Atoms:                  27
##########                            HA_RMSDs:               5.037
##########                            HA_RMSDh:               4.134
##########                            HA_RMSDm:               3.091
##########                          Grid_Score:         -166.393204
##########                     Grid_vdw_energy:          -46.918068
##########                      Grid_es_energy:         -119.475136
##########           Internal_energy_repulsive:           14.279252

@<TRIPOS>MOLECULE
*****
 63 66 1 0 0
SMALL
USER_CHARGES


@<TRIPOS>ATOM
      1 C1         17.8602   -6.1136   66.6754 C.3     1  <0>        -0.0411
      2 N1         18.5020   -6.0032   69.0203 N.pl3   1  <0>        -0.3043
      3 S1         20.2258   -6.9190   71.0168 S.3     1  <0>         0.0374
      4 C2         17.6123   -6.6634   68.0697 C.3     1  <0>         0.0597
      5 N2         18.8966   -8.1508   69.2228 N.pl3   1  <0>        -0.1644
      6 S2         18.0613  -11.2950   70.5382 S.3     1  <0>        -0.0181
      7 C3         16.1716   -6.4782   68.5261 C.3     1  <0>        -0.0411
      8 N3         19.9238  -12.0377   72.1141 N.pl3   1  <0>        -0.1947
      9 C4         19.2224   -6.9519   69.6329 C.cat   1  <0>         0.2163
     10 N4         18.0159  -11.1810   73.1741 N.pl3   1  <0>        -0.2839
     11 C5         20.3622   -8.6568   70.9349 C.2     1  <0>         0.1434
     12 C6         17.9642   -8.1569   68.1132 C.3     1  <0>         0.0975
     13 C7         19.5397   -9.1406   69.8889 C.2     1  <0>         0.2141
     14 C8         19.3495  -10.6030   69.5452 C.3     1  <0>         0.1154
     15 C9         18.6967  -11.5070   72.0691 C.cat   1  <0>         0.2958
     16 C10        20.7878  -12.3289   73.2486 C.3     1  <0>         0.1487
     17 C11        20.3927  -13.5706   74.0423 C.3     1  <0>         0.0087
     18 C12        21.5343  -13.9407   74.9895 C.3     1  <0>        -0.0471
     19 C13        21.8515  -12.7899   75.9436 C.3     1  <0>        -0.0526
     20 C14        22.1572  -11.4855   75.2077 C.3     1  <0>        -0.0471
     21 C15        21.1144  -11.1359   74.1463 C.3     1  <0>         0.0087
     22 C16        17.0076  -10.1345   73.3297 C.3     1  <0>         0.0262
     23 C17        17.2835   -8.8127   72.6152 C.3     1  <0>        -0.0344
     24 C18        16.2135   -7.7712   72.9404 C.3     1  <0>        -0.0514
     25 C19        14.8023   -8.2876   72.6557 C.3     1  <0>        -0.0529
     26 C20        14.5274   -9.5869   73.4070 C.3     1  <0>        -0.0514
     27 C21        15.5862  -10.6475   73.1040 C.3     1  <0>        -0.0344
     28 H1         18.4350   -8.4905   67.1889 H       1  <0>         0.0673
     29 H2         17.0850   -8.7592   68.3441 H       1  <0>         0.0673
     30 H3         19.0827  -10.6941   68.4924 H       1  <0>         0.0621
     31 H4         20.2786  -11.1419   69.7307 H       1  <0>         0.0621
     32 H5         18.2241  -11.7232   74.0005 H       1  <0>         0.1523
     33 H6         17.0397   -9.8822   74.3892 H       1  <0>         0.0499
     34 H7         15.4173  -11.5066   73.7533 H       1  <0>         0.0283
     35 H8         15.4839  -10.9635   72.0659 H       1  <0>         0.0283
     36 H9         13.5501   -9.9672   73.1096 H       1  <0>         0.0266
     37 H10        14.5207   -9.3853   74.4778 H       1  <0>         0.0266
     38 H11        14.0783   -7.5356   72.9702 H       1  <0>         0.0265
     39 H12        14.6945   -8.4635   71.5853 H       1  <0>         0.0265
     40 H13        16.3917   -6.8829   72.3342 H       1  <0>         0.0266
     41 H14        16.2876   -7.5027   73.9941 H       1  <0>         0.0266
     42 H15        17.2939   -8.9864   71.5387 H       1  <0>         0.0283
     43 H16        18.2572   -8.4340   72.9264 H       1  <0>         0.0283
     44 H17        20.3149  -12.2752   71.2141 H       1  <0>         0.4389
     45 H18        21.7434  -12.5937   72.7964 H       1  <0>         0.1056
     46 H19        20.2016  -10.8107   74.6443 H       1  <0>         0.0329
     47 H20        21.4936  -10.3202   73.5298 H       1  <0>         0.0329
     48 H21        23.1276  -11.5815   74.7216 H       1  <0>         0.0267
     49 H22        22.2060  -10.6741   75.9345 H       1  <0>         0.0267
     50 H23        22.7188  -13.0633   76.5448 H       1  <0>         0.0265
     51 H24        20.9988  -12.6327   76.6043 H       1  <0>         0.0265
     52 H25        21.2445  -14.8161   75.5714 H       1  <0>         0.0267
     53 H26        22.4232  -14.1772   74.4041 H       1  <0>         0.0267
     54 H27        19.4918  -13.3636   74.6204 H       1  <0>         0.0329
     55 H28        20.2047  -14.3971   73.3565 H       1  <0>         0.0329
     56 H29        20.9771   -9.2669   71.5805 H       1  <0>         0.1770
     57 H30        18.5634   -5.0086   69.1860 H       1  <0>         0.1497
     58 H31        17.6089   -5.0531   66.6520 H       1  <0>         0.0251
     59 H32        17.2401   -6.6501   65.9577 H       1  <0>         0.0251
     60 H33        18.9109   -6.2426   66.4150 H       1  <0>         0.0251
     61 H34        15.9140   -5.4198   68.4976 H       1  <0>         0.0251
     62 H35        15.5069   -7.0311   67.8628 H       1  <0>         0.0251
     63 H36        16.0625   -6.8512   69.5441 H       1  <0>         0.0251
@<TRIPOS>BOND
     1     7    61    1
     2     1    58    1
     3     7    62    1
     4     7    63    1
     5     4     7    1
     6     2    57    1
     7     1    59    1
     8     1     4    1
     9     1    60    1
    10    25    38    1
    11     2     4    1
    12     4    12    1
    13     2     9    1
    14    24    40    1
    15    25    39    1
    16    24    25    1
    17    25    26    1
    18    24    41    1
    19    23    24    1
    20     3     9    1
    21     5     9    2
    22    12    29    1
    23    12    28    1
    24     5    12    1
    25    26    37    1
    26    26    36    1
    27    26    27    1
    28     3    11    1
    29     5    13    1
    30    23    42    1
    31    23    43    1
    32    22    23    1
    33    27    35    1
    34    22    27    1
    35    27    34    1
    36    22    33    1
    37    11    13    2
    38    13    14    1
    39    10    22    1
    40    11    56    1
    41    14    30    1
    42     6    14    1
    43    14    31    1
    44     6    15    1
    45    10    15    1
    46    10    32    1
    47    21    47    1
    48     8    15    2
    49    21    46    1
    50    20    21    1
    51    16    21    1
    52    20    49    1
    53     8    44    1
    54     8    16    1
    55    20    48    1
    56    19    20    1
    57    16    45    1
    58    16    17    1
    59    17    54    1
    60    19    51    1
    61    19    50    1
    62    18    19    1
    63    17    55    1
    64    17    18    1
    65    18    53    1
    66    18    52    1
@<TRIPOS>SUBSTRUCTURE
     1 <0>         1 TEMP              0 ****  ****    0 ROOT

