
##########                                Name:               *****
##########                    Molecular_Weight:             408.676
##########                DOCK_Rotatable_Bonds:                   6
##########                       Formal_Charge:              1.9998
##########                     HBond_Acceptors:                   6
##########                        HBond_Donors:                   3
##########                         Heavy_Atoms:                  27
##########                            HA_RMSDs:               7.826
##########                            HA_RMSDh:               4.915
##########                            HA_RMSDm:               3.544
##########                          Grid_Score:         -168.370499
##########                     Grid_vdw_energy:          -38.683208
##########                      Grid_es_energy:         -129.687286
##########           Internal_energy_repulsive:           32.470768

@<TRIPOS>MOLECULE
*****
 63 66 1 0 0
SMALL
USER_CHARGES


@<TRIPOS>ATOM
      1 C1         23.0401   -6.7896   69.8028 C.3     1  <0>        -0.0411
      2 N1         21.2721   -7.0556   68.1518 N.pl3   1  <0>        -0.3043
      3 S1         19.0973   -5.8865   66.8478 S.3     1  <0>         0.0374
      4 C2         21.6187   -7.2646   69.5544 C.3     1  <0>         0.0597
      5 N2         19.7505   -5.9831   69.3109 N.pl3   1  <0>        -0.1644
      6 S2         16.6541   -5.8936   71.0741 S.3     1  <0>        -0.0181
      7 C3         21.4217   -8.7339   69.9014 C.3     1  <0>        -0.0411
      8 N3         15.3383   -4.9425   69.1074 N.pl3   1  <0>        -0.1947
      9 C4         20.1787   -6.2828   68.1116 C.cat   1  <0>         0.2163
     10 N4         15.1718   -7.2658   69.3762 N.pl3   1  <0>        -0.2839
     11 C5         18.0620   -5.0954   68.0086 C.2     1  <0>         0.1434
     12 C6         20.6339   -6.4192   70.3740 C.3     1  <0>         0.0975
     13 C7         18.5919   -5.2799   69.3086 C.2     1  <0>         0.2141
     14 C8         17.9423   -4.7868   70.5844 C.3     1  <0>         0.1154
     15 C9         15.6473   -6.0729   69.7525 C.cat   1  <0>         0.2958
     16 C10        14.5303   -4.7230   67.9169 C.3     1  <0>         0.1487
     17 C11        13.1172   -4.2196   68.1954 C.3     1  <0>         0.0087
     18 C12        12.4938   -3.7351   66.8862 C.3     1  <0>        -0.0471
     19 C13        12.4537   -4.8564   65.8487 C.3     1  <0>        -0.0526
     20 C14        13.8296   -5.4740   65.5996 C.3     1  <0>        -0.0471
     21 C15        14.5604   -5.8525   66.8876 C.3     1  <0>         0.0087
     22 C16        15.7534   -8.5827   69.6282 C.3     1  <0>         0.0262
     23 C17        17.2733   -8.6386   69.7727 C.3     1  <0>        -0.0344
     24 C18        17.7644  -10.0775   69.9271 C.3     1  <0>        -0.0514
     25 C19        17.0575  -10.8074   71.0702 C.3     1  <0>        -0.0529
     26 C20        15.5423  -10.7774   70.8916 C.3     1  <0>        -0.0514
     27 C21        15.0225   -9.3487   70.7299 C.3     1  <0>        -0.0344
     28 H1         21.1277   -5.5793   70.8619 H       1  <0>         0.0673
     29 H2         20.0999   -7.0342   71.0990 H       1  <0>         0.0673
     30 H3         18.6924   -4.7336   71.3735 H       1  <0>         0.0621
     31 H4         17.5230   -3.7948   70.4168 H       1  <0>         0.0621
     32 H5         14.3069   -7.2550   68.8548 H       1  <0>         0.1523
     33 H6         15.5460   -9.1491   68.7208 H       1  <0>         0.0499
     34 H7         13.9614   -9.3878   70.4836 H       1  <0>         0.0283
     35 H8         15.1469   -8.8176   71.6735 H       1  <0>         0.0283
     36 H9         15.0742  -11.2275   71.7670 H       1  <0>         0.0266
     37 H10        15.2758  -11.3561   70.0077 H       1  <0>         0.0266
     38 H11        17.3921  -11.8448   71.0905 H       1  <0>         0.0265
     39 H12        17.3159  -10.3287   72.0148 H       1  <0>         0.0265
     40 H13        18.8357  -10.0637   70.1281 H       1  <0>         0.0266
     41 H14        17.5846  -10.6160   68.9968 H       1  <0>         0.0266
     42 H15        17.5675   -8.0669   70.6534 H       1  <0>         0.0283
     43 H16        17.7333   -8.1968   68.8887 H       1  <0>         0.0283
     44 H17        15.7292   -4.1043   69.5124 H       1  <0>         0.4389
     45 H18        15.0170   -3.8882   67.4131 H       1  <0>         0.1056
     46 H19        14.0825   -6.7322   67.3173 H       1  <0>         0.0329
     47 H20        15.5980   -6.0906   66.6514 H       1  <0>         0.0329
     48 H21        14.4388   -4.7538   65.0544 H       1  <0>         0.0267
     49 H22        13.7087   -6.3681   64.9874 H       1  <0>         0.0267
     50 H23        12.0779   -4.4503   64.9094 H       1  <0>         0.0265
     51 H24        11.7733   -5.6346   66.1948 H       1  <0>         0.0265
     52 H25        11.4767   -3.3938   67.0810 H       1  <0>         0.0267
     53 H26        13.0820   -2.9048   66.4949 H       1  <0>         0.0267
     54 H27        12.5153   -5.0295   68.6081 H       1  <0>         0.0329
     55 H28        13.1578   -3.3950   68.9076 H       1  <0>         0.0329
     56 H29        17.1593   -4.5508   67.7724 H       1  <0>         0.1770
     57 H30        21.7685   -7.4272   67.3544 H       1  <0>         0.1497
     58 H31        23.7336   -7.3937   69.2175 H       1  <0>         0.0251
     59 H32        23.2763   -6.8885   70.8620 H       1  <0>         0.0251
     60 H33        23.1314   -5.7444   69.5068 H       1  <0>         0.0251
     61 H34        22.1180   -9.3409   69.3234 H       1  <0>         0.0251
     62 H35        21.6066   -8.8835   70.9650 H       1  <0>         0.0251
     63 H36        20.3997   -9.0290   69.6649 H       1  <0>         0.0251
@<TRIPOS>BOND
     1     7    61    1
     2     1    58    1
     3     7    62    1
     4     7    63    1
     5     4     7    1
     6     2    57    1
     7     1    59    1
     8     1     4    1
     9     1    60    1
    10    25    38    1
    11     2     4    1
    12     4    12    1
    13     2     9    1
    14    24    40    1
    15    25    39    1
    16    24    25    1
    17    25    26    1
    18    24    41    1
    19    23    24    1
    20     3     9    1
    21     5     9    2
    22    12    29    1
    23    12    28    1
    24     5    12    1
    25    26    37    1
    26    26    36    1
    27    26    27    1
    28     3    11    1
    29     5    13    1
    30    23    42    1
    31    23    43    1
    32    22    23    1
    33    27    35    1
    34    22    27    1
    35    27    34    1
    36    22    33    1
    37    11    13    2
    38    13    14    1
    39    10    22    1
    40    11    56    1
    41    14    30    1
    42     6    14    1
    43    14    31    1
    44     6    15    1
    45    10    15    1
    46    10    32    1
    47    21    47    1
    48     8    15    2
    49    21    46    1
    50    20    21    1
    51    16    21    1
    52    20    49    1
    53     8    44    1
    54     8    16    1
    55    20    48    1
    56    19    20    1
    57    16    45    1
    58    16    17    1
    59    17    54    1
    60    19    51    1
    61    19    50    1
    62    18    19    1
    63    17    55    1
    64    17    18    1
    65    18    53    1
    66    18    52    1
@<TRIPOS>SUBSTRUCTURE
     1 <0>         1 TEMP              0 ****  ****    0 ROOT

