
##########                                Name:               *****
##########                    Molecular_Weight:             408.676
##########                DOCK_Rotatable_Bonds:                   6
##########                       Formal_Charge:              1.9998
##########                     HBond_Acceptors:                   6
##########                        HBond_Donors:                   3
##########                         Heavy_Atoms:                  27
##########                            HA_RMSDs:               4.267
##########                            HA_RMSDh:               3.221
##########                            HA_RMSDm:               2.517
##########                          Grid_Score:         -169.058945
##########                     Grid_vdw_energy:          -41.130520
##########                      Grid_es_energy:         -127.928429
##########           Internal_energy_repulsive:           20.651089

@<TRIPOS>MOLECULE
*****
 63 66 1 0 0
SMALL
USER_CHARGES


@<TRIPOS>ATOM
      1 C1         18.1547   -4.5102   66.5383 C.3     1  <0>        -0.0411
      2 N1         17.6963   -5.0517   68.8662 N.pl3   1  <0>        -0.3043
      3 S1         18.7546   -5.5470   71.4023 S.3     1  <0>         0.0374
      4 C2         17.9256   -5.6258   67.5437 C.3     1  <0>         0.0597
      5 N2         19.3951   -6.4198   69.0935 N.pl3   1  <0>        -0.1644
      6 S2         20.6484   -9.6584   69.4972 S.3     1  <0>        -0.0181
      7 C3         16.7449   -6.5141   67.1761 C.3     1  <0>        -0.0411
      8 N3         21.2971   -9.6234   71.9634 N.pl3   1  <0>        -0.1947
      9 C4         18.6131   -5.5631   69.6984 C.cat   1  <0>         0.2163
     10 N4         19.2077  -10.5836   71.5050 N.pl3   1  <0>        -0.2839
     11 C5         20.0969   -6.6555   71.2814 C.2     1  <0>         0.1434
     12 C6         19.1875   -6.4918   67.6608 C.3     1  <0>         0.0975
     13 C7         20.2749   -7.0269   69.9267 C.2     1  <0>         0.2141
     14 C8         21.3059   -8.0190   69.4311 C.3     1  <0>         0.1154
     15 C9         20.3364   -9.9858   71.1059 C.cat   1  <0>         0.2958
     16 C10        21.3557   -9.7195   73.4145 C.3     1  <0>         0.1487
     17 C11        22.0580  -10.9689   73.9378 C.3     1  <0>         0.0087
     18 C12        22.3298  -10.7984   75.4327 C.3     1  <0>        -0.0471
     19 C13        21.0312  -10.5673   76.2043 C.3     1  <0>        -0.0526
     20 C14        20.2280   -9.3862   75.6599 C.3     1  <0>        -0.0471
     21 C15        20.0432   -9.4334   74.1433 C.3     1  <0>         0.0087
     22 C16        17.8483  -10.3445   71.0243 C.3     1  <0>         0.0262
     23 C17        17.4444   -8.8848   70.8247 C.3     1  <0>        -0.0344
     24 C18        15.9747   -8.7646   70.4233 C.3     1  <0>        -0.0514
     25 C19        15.6406   -9.6193   69.1998 C.3     1  <0>        -0.0529
     26 C20        16.0129  -11.0813   69.4287 C.3     1  <0>        -0.0514
     27 C21        17.4787  -11.2318   69.8366 C.3     1  <0>        -0.0344
     28 H1         20.0246   -6.0670   67.1074 H       1  <0>         0.0673
     29 H2         18.9892   -7.5165   67.3450 H       1  <0>         0.0673
     30 H3         21.5726   -7.7779   68.4022 H       1  <0>         0.0621
     31 H4         22.1953   -7.9601   70.0583 H       1  <0>         0.0621
     32 H5         19.3067  -11.2843   72.2257 H       1  <0>         0.1523
     33 H6         17.2087  -10.6949   71.8338 H       1  <0>         0.0499
     34 H7         17.6621  -12.2718   70.1067 H       1  <0>         0.0283
     35 H8         18.1110  -10.9703   68.9882 H       1  <0>         0.0283
     36 H9         15.8429  -11.6378   68.5070 H       1  <0>         0.0266
     37 H10        15.3800  -11.4917   70.2149 H       1  <0>         0.0266
     38 H11        14.5708   -9.5524   69.0007 H       1  <0>         0.0265
     39 H12        16.1900   -9.2410   68.3377 H       1  <0>         0.0265
     40 H13        15.7573   -7.7215   70.1933 H       1  <0>         0.0266
     41 H14        15.3511   -9.0815   71.2590 H       1  <0>         0.0266
     42 H15        18.0633   -8.4493   70.0396 H       1  <0>         0.0283
     43 H16        17.6071   -8.3382   71.7537 H       1  <0>         0.0283
     44 H17        22.1155   -9.2169   71.5341 H       1  <0>         0.4389
     45 H18        22.0109   -8.9007   73.7108 H       1  <0>         0.1056
     46 H19        19.3282  -10.2188   73.9008 H       1  <0>         0.0329
     47 H20        19.6489   -8.4754   73.8028 H       1  <0>         0.0329
     48 H21        20.7498   -8.4649   75.9168 H       1  <0>         0.0267
     49 H22        19.2463   -9.3792   76.1344 H       1  <0>         0.0267
     50 H23        21.2752  -10.3720   77.2487 H       1  <0>         0.0265
     51 H24        20.4201  -11.4682   76.1466 H       1  <0>         0.0265
     52 H25        22.8136  -11.6991   75.8115 H       1  <0>         0.0267
     53 H26        22.9925   -9.9456   75.5814 H       1  <0>         0.0267
     54 H27        21.4211  -11.8395   73.7799 H       1  <0>         0.0329
     55 H28        23.0014  -11.1055   73.4084 H       1  <0>         0.0329
     56 H29        20.6972   -7.0033   72.1095 H       1  <0>         0.1770
     57 H30        16.9755   -4.3874   69.1098 H       1  <0>         0.1497
     58 H31        17.2551   -3.8993   66.4607 H       1  <0>         0.0251
     59 H32        18.3869   -4.9408   65.5646 H       1  <0>         0.0251
     60 H33        18.9874   -3.8887   66.8680 H       1  <0>         0.0251
     61 H34        15.8447   -5.9060   67.0907 H       1  <0>         0.0251
     62 H35        16.9428   -7.0047   66.2233 H       1  <0>         0.0251
     63 H36        16.6023   -7.2674   67.9504 H       1  <0>         0.0251
@<TRIPOS>BOND
     1     7    61    1
     2     1    58    1
     3     7    62    1
     4     7    63    1
     5     4     7    1
     6     2    57    1
     7     1    59    1
     8     1     4    1
     9     1    60    1
    10    25    38    1
    11     2     4    1
    12     4    12    1
    13     2     9    1
    14    24    40    1
    15    25    39    1
    16    24    25    1
    17    25    26    1
    18    24    41    1
    19    23    24    1
    20     3     9    1
    21     5     9    2
    22    12    29    1
    23    12    28    1
    24     5    12    1
    25    26    37    1
    26    26    36    1
    27    26    27    1
    28     3    11    1
    29     5    13    1
    30    23    42    1
    31    23    43    1
    32    22    23    1
    33    27    35    1
    34    22    27    1
    35    27    34    1
    36    22    33    1
    37    11    13    2
    38    13    14    1
    39    10    22    1
    40    11    56    1
    41    14    30    1
    42     6    14    1
    43    14    31    1
    44     6    15    1
    45    10    15    1
    46    10    32    1
    47    21    47    1
    48     8    15    2
    49    21    46    1
    50    20    21    1
    51    16    21    1
    52    20    49    1
    53     8    44    1
    54     8    16    1
    55    20    48    1
    56    19    20    1
    57    16    45    1
    58    16    17    1
    59    17    54    1
    60    19    51    1
    61    19    50    1
    62    18    19    1
    63    17    55    1
    64    17    18    1
    65    18    53    1
    66    18    52    1
@<TRIPOS>SUBSTRUCTURE
     1 <0>         1 TEMP              0 ****  ****    0 ROOT

