
##########                                Name:               *****
##########                    Molecular_Weight:             408.676
##########                DOCK_Rotatable_Bonds:                   6
##########                       Formal_Charge:              1.9998
##########                     HBond_Acceptors:                   6
##########                        HBond_Donors:                   3
##########                         Heavy_Atoms:                  27
##########                            HA_RMSDs:               5.149
##########                            HA_RMSDh:               4.060
##########                            HA_RMSDm:               3.098
##########                          Grid_Score:         -166.004730
##########                     Grid_vdw_energy:          -47.492996
##########                      Grid_es_energy:         -118.511726
##########           Internal_energy_repulsive:           16.254427

@<TRIPOS>MOLECULE
*****
 63 66 1 0 0
SMALL
USER_CHARGES


@<TRIPOS>ATOM
      1 C1         23.0825   -5.1884   67.7876 C.3     1  <0>        -0.0411
      2 N1         21.4894   -7.0276   67.7419 N.pl3   1  <0>        -0.3043
      3 S1         18.9225   -7.9124   68.3938 S.3     1  <0>         0.0374
      4 C2         22.5783   -6.4277   68.5071 C.3     1  <0>         0.0597
      5 N2         20.6734   -6.6374   69.7397 N.pl3   1  <0>        -0.1644
      6 S2         20.1692   -7.5862   73.1131 S.3     1  <0>        -0.0181
      7 C3         23.6693   -7.4685   68.7186 C.3     1  <0>        -0.0411
      8 N3         17.7230   -7.6232   73.8334 N.pl3   1  <0>        -0.1947
      9 C4         20.4160   -7.0931   68.5407 C.cat   1  <0>         0.2163
     10 N4         18.6989   -9.7351   73.5413 N.pl3   1  <0>        -0.2839
     11 C5         18.5327   -7.4543   70.0319 C.2     1  <0>         0.1434
     12 C6         21.9865   -6.0376   69.8687 C.3     1  <0>         0.0975
     13 C7         19.6367   -6.7749   70.6017 C.2     1  <0>         0.2141
     14 C8         19.6988   -6.2720   72.0286 C.3     1  <0>         0.1154
     15 C9         18.7666   -8.3988   73.5188 C.cat   1  <0>         0.2958
     16 C10        16.3584   -7.9749   74.1974 C.3     1  <0>         0.1487
     17 C11        16.1865   -8.4288   75.6439 C.3     1  <0>         0.0087
     18 C12        14.6959   -8.4613   75.9821 C.3     1  <0>        -0.0471
     19 C13        13.9405   -9.4036   75.0458 C.3     1  <0>        -0.0526
     20 C14        14.1559   -9.0620   73.5715 C.3     1  <0>        -0.0471
     21 C15        15.6288   -8.8806   73.2058 C.3     1  <0>         0.0087
     22 C16        19.3022  -10.6791   72.6027 C.3     1  <0>         0.0262
     23 C17        19.4521  -10.2012   71.1594 C.3     1  <0>        -0.0344
     24 C18        19.9955  -11.3109   70.2601 C.3     1  <0>        -0.0514
     25 C19        21.2974  -11.9042   70.8006 C.3     1  <0>        -0.0529
     26 C20        21.1217  -12.4130   72.2284 C.3     1  <0>        -0.0514
     27 C21        20.5743  -11.3238   73.1511 C.3     1  <0>        -0.0344
     28 H1         21.9288   -4.9565   69.9919 H       1  <0>         0.0673
     29 H2         22.5474   -6.4951   70.6844 H       1  <0>         0.0673
     30 H3         20.4319   -5.4682   72.0958 H       1  <0>         0.0621
     31 H4         18.7196   -5.8936   72.3217 H       1  <0>         0.0621
     32 H5         18.1664  -10.1404   74.2978 H       1  <0>         0.1523
     33 H6         18.5865  -11.4985   72.5443 H       1  <0>         0.0499
     34 H7         20.3513  -11.7665   74.1219 H       1  <0>         0.0283
     35 H8         21.3348  -10.5538   73.2802 H       1  <0>         0.0283
     36 H9         22.0886  -12.7447   72.6070 H       1  <0>         0.0266
     37 H10        20.4322  -13.2567   72.2242 H       1  <0>         0.0266
     38 H11        21.6017  -12.7343   70.1628 H       1  <0>         0.0265
     39 H12        22.0729  -11.1383   70.7867 H       1  <0>         0.0265
     40 H13        20.1819  -10.8997   69.2679 H       1  <0>         0.0266
     41 H14        19.2500  -12.1021   70.1822 H       1  <0>         0.0266
     42 H15        20.1405   -9.3558   71.1350 H       1  <0>         0.0283
     43 H16        18.4793   -9.8819   70.7852 H       1  <0>         0.0283
     44 H17        17.9128   -6.6317   73.8157 H       1  <0>         0.4389
     45 H18        15.8162   -7.0309   74.1473 H       1  <0>         0.1056
     46 H19        16.1123   -9.8569   73.2003 H       1  <0>         0.0329
     47 H20        15.6970   -8.4440   72.2089 H       1  <0>         0.0329
     48 H21        13.6273   -8.1354   73.3500 H       1  <0>         0.0267
     49 H22        13.7369   -9.8615   72.9598 H       1  <0>         0.0267
     50 H23        12.8753   -9.3370   75.2678 H       1  <0>         0.0265
     51 H24        14.2759  -10.4251   75.2256 H       1  <0>         0.0265
     52 H25        14.5713   -8.8048   77.0094 H       1  <0>         0.0267
     53 H26        14.2851   -7.4558   75.8878 H       1  <0>         0.0267
     54 H27        16.6102   -9.4257   75.7670 H       1  <0>         0.0329
     55 H28        16.6965   -7.7305   76.3081 H       1  <0>         0.0329
     56 H29        17.5969   -7.6570   70.5321 H       1  <0>         0.1770
     57 H30        21.5371   -7.3374   66.7817 H       1  <0>         0.1497
     58 H31        23.5006   -5.4728   66.8218 H       1  <0>         0.0251
     59 H32        23.8526   -4.7069   68.3897 H       1  <0>         0.0251
     60 H33        22.2554   -4.4951   67.6342 H       1  <0>         0.0251
     61 H34        24.0948   -7.7505   67.7559 H       1  <0>         0.0251
     62 H35        24.4513   -7.0507   69.3523 H       1  <0>         0.0251
     63 H36        23.2432   -8.3487   69.1992 H       1  <0>         0.0251
@<TRIPOS>BOND
     1     7    61    1
     2     1    58    1
     3     7    62    1
     4     7    63    1
     5     4     7    1
     6     2    57    1
     7     1    59    1
     8     1     4    1
     9     1    60    1
    10    25    38    1
    11     2     4    1
    12     4    12    1
    13     2     9    1
    14    24    40    1
    15    25    39    1
    16    24    25    1
    17    25    26    1
    18    24    41    1
    19    23    24    1
    20     3     9    1
    21     5     9    2
    22    12    29    1
    23    12    28    1
    24     5    12    1
    25    26    37    1
    26    26    36    1
    27    26    27    1
    28     3    11    1
    29     5    13    1
    30    23    42    1
    31    23    43    1
    32    22    23    1
    33    27    35    1
    34    22    27    1
    35    27    34    1
    36    22    33    1
    37    11    13    2
    38    13    14    1
    39    10    22    1
    40    11    56    1
    41    14    30    1
    42     6    14    1
    43    14    31    1
    44     6    15    1
    45    10    15    1
    46    10    32    1
    47    21    47    1
    48     8    15    2
    49    21    46    1
    50    20    21    1
    51    16    21    1
    52    20    49    1
    53     8    44    1
    54     8    16    1
    55    20    48    1
    56    19    20    1
    57    16    45    1
    58    16    17    1
    59    17    54    1
    60    19    51    1
    61    19    50    1
    62    18    19    1
    63    17    55    1
    64    17    18    1
    65    18    53    1
    66    18    52    1
@<TRIPOS>SUBSTRUCTURE
     1 <0>         1 TEMP              0 ****  ****    0 ROOT

