
##########                                Name:               *****
##########                    Molecular_Weight:             408.676
##########                DOCK_Rotatable_Bonds:                   6
##########                       Formal_Charge:              1.9998
##########                     HBond_Acceptors:                   6
##########                        HBond_Donors:                   3
##########                         Heavy_Atoms:                  27
##########                            HA_RMSDs:               6.695
##########                            HA_RMSDh:               4.244
##########                            HA_RMSDm:               3.350
##########                          Grid_Score:         -167.180878
##########                     Grid_vdw_energy:          -46.323994
##########                      Grid_es_energy:         -120.856888
##########           Internal_energy_repulsive:           21.065462

@<TRIPOS>MOLECULE
*****
 63 66 1 0 0
SMALL
USER_CHARGES


@<TRIPOS>ATOM
      1 C1         23.5830   -5.4775   68.7009 C.3     1  <0>        -0.0411
      2 N1         21.6138   -6.2400   67.4911 N.pl3   1  <0>        -0.3043
      3 S1         18.8994   -5.8517   66.9639 S.3     1  <0>         0.0374
      4 C2         22.3921   -6.4207   68.7129 C.3     1  <0>         0.0597
      5 N2         20.2163   -5.9021   69.1470 N.pl3   1  <0>        -0.1644
      6 S2         18.0369   -7.1405   71.6142 S.3     1  <0>        -0.0181
      7 C3         22.8021   -7.8824   68.8294 C.3     1  <0>        -0.0411
      8 N3         15.8024   -6.6435   70.4899 N.pl3   1  <0>        -0.1947
      9 C4         20.3617   -5.9238   67.8470 C.cat   1  <0>         0.2163
     10 N4         16.5688   -8.8446   70.2346 N.pl3   1  <0>        -0.2839
     11 C5         18.0334   -5.5954   68.4570 C.2     1  <0>         0.1434
     12 C6         21.4570   -6.0676   69.8778 C.3     1  <0>         0.0975
     13 C7         18.9394   -5.6775   69.5420 C.2     1  <0>         0.2141
     14 C8         18.5522   -5.5645   71.0015 C.3     1  <0>         0.1154
     15 C9         16.7130   -7.5998   70.7038 C.cat   1  <0>         0.2958
     16 C10        14.5627   -6.6708   69.7279 C.3     1  <0>         0.1487
     17 C11        13.3050   -6.4285   70.5571 C.3     1  <0>         0.0087
     18 C12        12.1292   -6.1698   69.6148 C.3     1  <0>        -0.0471
     19 C13        11.9122   -7.3509   68.6698 C.3     1  <0>        -0.0526
     20 C14        13.1715   -7.7099   67.8813 C.3     1  <0>        -0.0471
     21 C15        14.4134   -7.8458   68.7620 C.3     1  <0>         0.0087
     22 C16        17.5682   -9.9104   70.1984 C.3     1  <0>         0.0262
     23 C17        18.8615   -9.6046   69.4448 C.3     1  <0>        -0.0344
     24 C18        19.7754  -10.8282   69.3899 C.3     1  <0>        -0.0514
     25 C19        20.0500  -11.4043   70.7798 C.3     1  <0>        -0.0529
     26 C20        18.7503  -11.7417   71.5047 C.3     1  <0>        -0.0514
     27 C21        17.8131  -10.5355   71.5709 C.3     1  <0>        -0.0344
     28 H1         21.7597   -5.1479   70.3775 H       1  <0>         0.0673
     29 H2         21.3865   -6.8932   70.5867 H       1  <0>         0.0673
     30 H3         19.4104   -5.2164   71.5762 H       1  <0>         0.0621
     31 H4         17.7347   -4.8511   71.1046 H       1  <0>         0.0621
     32 H5         15.6598   -9.0757   69.8598 H       1  <0>         0.1523
     33 H6         17.0977  -10.7041   69.6190 H       1  <0>         0.0499
     34 H7         16.8570  -10.8571   71.9842 H       1  <0>         0.0283
     35 H8         18.2483   -9.7846   72.2301 H       1  <0>         0.0283
     36 H9         18.9848  -12.0639   72.5192 H       1  <0>         0.0266
     37 H10        18.2494  -12.5543   70.9794 H       1  <0>         0.0266
     38 H11        20.6452  -12.3119   70.6773 H       1  <0>         0.0265
     39 H12        20.6077  -10.6742   71.3664 H       1  <0>         0.0265
     40 H13        20.7232  -10.5390   68.9358 H       1  <0>         0.0266
     41 H14        19.3059  -11.5950   68.7739 H       1  <0>         0.0266
     42 H15        19.3848   -8.7935   69.9521 H       1  <0>         0.0283
     43 H16        18.6186   -9.2939   68.4285 H       1  <0>         0.0283
     44 H17        16.0085   -5.7578   70.9287 H       1  <0>         0.4389
     45 H18        14.6276   -5.7973   69.0794 H       1  <0>         0.1056
     46 H19        14.3362   -8.7669   69.3386 H       1  <0>         0.0329
     47 H20        15.2974   -7.8973   68.1254 H       1  <0>         0.0329
     48 H21        13.3532   -6.9281   67.1444 H       1  <0>         0.0267
     49 H22        13.0041   -8.6530   67.3604 H       1  <0>         0.0267
     50 H23        11.1205   -7.0943   67.9657 H       1  <0>         0.0265
     51 H24        11.5998   -8.2177   69.2525 H       1  <0>         0.0265
     52 H25        11.2261   -6.0165   70.2063 H       1  <0>         0.0267
     53 H26        12.3305   -5.2730   69.0284 H       1  <0>         0.0267
     54 H27        13.0958   -7.3064   71.1688 H       1  <0>         0.0329
     55 H28        13.4545   -5.5616   71.2011 H       1  <0>         0.0329
     56 H29        16.9734   -5.4042   68.5402 H       1  <0>         0.1770
     57 H30        21.9583   -6.3360   66.5464 H       1  <0>         0.1497
     58 H31        24.2422   -5.7337   67.8712 H       1  <0>         0.0251
     59 H32        24.1282   -5.5689   69.6400 H       1  <0>         0.0251
     60 H33        23.2335   -4.4518   68.5825 H       1  <0>         0.0251
     61 H34        23.4668   -8.1407   68.0055 H       1  <0>         0.0251
     62 H35        23.3193   -8.0399   69.7757 H       1  <0>         0.0251
     63 H36        21.9141   -8.5127   68.7909 H       1  <0>         0.0251
@<TRIPOS>BOND
     1     7    61    1
     2     1    58    1
     3     7    62    1
     4     7    63    1
     5     4     7    1
     6     2    57    1
     7     1    59    1
     8     1     4    1
     9     1    60    1
    10    25    38    1
    11     2     4    1
    12     4    12    1
    13     2     9    1
    14    24    40    1
    15    25    39    1
    16    24    25    1
    17    25    26    1
    18    24    41    1
    19    23    24    1
    20     3     9    1
    21     5     9    2
    22    12    29    1
    23    12    28    1
    24     5    12    1
    25    26    37    1
    26    26    36    1
    27    26    27    1
    28     3    11    1
    29     5    13    1
    30    23    42    1
    31    23    43    1
    32    22    23    1
    33    27    35    1
    34    22    27    1
    35    27    34    1
    36    22    33    1
    37    11    13    2
    38    13    14    1
    39    10    22    1
    40    11    56    1
    41    14    30    1
    42     6    14    1
    43    14    31    1
    44     6    15    1
    45    10    15    1
    46    10    32    1
    47    21    47    1
    48     8    15    2
    49    21    46    1
    50    20    21    1
    51    16    21    1
    52    20    49    1
    53     8    44    1
    54     8    16    1
    55    20    48    1
    56    19    20    1
    57    16    45    1
    58    16    17    1
    59    17    54    1
    60    19    51    1
    61    19    50    1
    62    18    19    1
    63    17    55    1
    64    17    18    1
    65    18    53    1
    66    18    52    1
@<TRIPOS>SUBSTRUCTURE
     1 <0>         1 TEMP              0 ****  ****    0 ROOT

