
##########                                Name:               *****
##########                    Molecular_Weight:             408.676
##########                DOCK_Rotatable_Bonds:                   6
##########                       Formal_Charge:              1.9998
##########                     HBond_Acceptors:                   6
##########                        HBond_Donors:                   3
##########                         Heavy_Atoms:                  27
##########                            HA_RMSDs:               4.793
##########                            HA_RMSDh:               3.911
##########                            HA_RMSDm:               3.119
##########                          Grid_Score:         -166.364456
##########                     Grid_vdw_energy:          -45.721222
##########                      Grid_es_energy:         -120.643234
##########           Internal_energy_repulsive:           18.419685

@<TRIPOS>MOLECULE
*****
 63 66 1 0 0
SMALL
USER_CHARGES


@<TRIPOS>ATOM
      1 C1         17.8508   -5.7809   66.6098 C.3     1  <0>        -0.0411
      2 N1         18.7561   -5.9069   68.8653 N.pl3   1  <0>        -0.3043
      3 S1         20.5592   -7.1560   70.5932 S.3     1  <0>         0.0374
      4 C2         17.6903   -6.3898   67.9923 C.3     1  <0>         0.0597
      5 N2         18.8944   -8.0952   68.9053 N.pl3   1  <0>        -0.1644
      6 S2         17.8006  -11.1893   70.1272 S.3     1  <0>        -0.0181
      7 C3         16.3441   -6.0639   68.6246 C.3     1  <0>        -0.0411
      8 N3         19.7082  -11.9550   71.6367 N.pl3   1  <0>        -0.1947
      9 C4         19.4132   -6.9746   69.3373 C.cat   1  <0>         0.2163
     10 N4         17.8998  -10.9663   72.7546 N.pl3   1  <0>        -0.2839
     11 C5         20.4636   -8.8880   70.4034 C.2     1  <0>         0.1434
     12 C6         17.8520   -7.9142   67.9145 C.3     1  <0>         0.0975
     13 C7         19.4759   -9.1978   69.4372 C.2     1  <0>         0.2141
     14 C8         19.0646  -10.6002   69.0410 C.3     1  <0>         0.1154
     15 C9         18.5058  -11.3689   71.6314 C.cat   1  <0>         0.2958
     16 C10        20.6168  -12.2406   72.7371 C.3     1  <0>         0.1487
     17 C11        20.1999  -13.4190   73.6122 C.3     1  <0>         0.0087
     18 C12        21.3707  -13.8079   74.5152 C.3     1  <0>        -0.0471
     19 C13        21.8020  -12.6330   75.3921 C.3     1  <0>        -0.0526
     20 C14        22.1365  -11.3844   74.5763 C.3     1  <0>        -0.0471
     21 C15        21.0567  -11.0269   73.5552 C.3     1  <0>         0.0087
     22 C16        17.2036   -9.7039   72.9945 C.3     1  <0>         0.0262
     23 C17        17.7100   -8.4897   72.2178 C.3     1  <0>        -0.0344
     24 C18        16.9727   -7.2171   72.6333 C.3     1  <0>        -0.0514
     25 C19        15.4549   -7.3695   72.5236 C.3     1  <0>        -0.0529
     26 C20        14.9592   -8.5622   73.3361 C.3     1  <0>        -0.0514
     27 C21        15.6835   -9.8504   72.9445 C.3     1  <0>        -0.0344
     28 H1         18.1718   -8.2389   66.9247 H       1  <0>         0.0673
     29 H2         16.9343   -8.4207   68.2150 H       1  <0>         0.0673
     30 H3         18.6866  -10.5897   68.0188 H       1  <0>         0.0621
     31 H4         19.9294  -11.2610   69.0999 H       1  <0>         0.0621
     32 H5         17.9271  -11.6125   73.5304 H       1  <0>         0.1523
     33 H6         17.4191   -9.4688   74.0363 H       1  <0>         0.0499
     34 H7         15.3859  -10.6424   73.6317 H       1  <0>         0.0283
     35 H8         15.3872  -10.1300   71.9335 H       1  <0>         0.0283
     36 H9         13.8908   -8.6895   73.1612 H       1  <0>         0.0266
     37 H10        15.1263   -8.3668   74.3949 H       1  <0>         0.0266
     38 H11        14.9786   -6.4628   72.8972 H       1  <0>         0.0265
     39 H12        15.1839   -7.5118   71.4774 H       1  <0>         0.0265
     40 H13        17.2915   -6.3992   71.9869 H       1  <0>         0.0266
     41 H14        17.2321   -6.9768   73.6642 H       1  <0>         0.0266
     42 H15        17.5526   -8.6589   71.1521 H       1  <0>         0.0283
     43 H16        18.7760   -8.3631   72.4068 H       1  <0>         0.0283
     44 H17        20.0399  -12.2472   70.7290 H       1  <0>         0.4389
     45 H18        21.5302  -12.5802   72.2491 H       1  <0>         0.1056
     46 H19        20.1919  -10.6272   74.0836 H       1  <0>         0.0329
     47 H20        21.4446  -10.2641   72.8792 H       1  <0>         0.0329
     48 H21        23.0717  -11.5580   74.0451 H       1  <0>         0.0267
     49 H22        22.2692  -10.5435   75.2577 H       1  <0>         0.0267
     50 H23        22.6854  -12.9264   75.9596 H       1  <0>         0.0265
     51 H24        20.9971  -12.3966   76.0881 H       1  <0>         0.0265
     52 H25        21.0668  -14.6369   75.1549 H       1  <0>         0.0267
     53 H26        22.2116  -14.1218   73.8963 H       1  <0>         0.0267
     54 H27        19.3450  -13.1341   74.2259 H       1  <0>         0.0329
     55 H28        19.9298  -14.2651   72.9797 H       1  <0>         0.0329
     56 H29        21.0633   -9.6098   70.9385 H       1  <0>         0.1770
     57 H30        18.9613   -4.9405   69.0753 H       1  <0>         0.1497
     58 H31        17.7353   -4.6987   66.6727 H       1  <0>         0.0251
     59 H32        17.0921   -6.1894   65.9427 H       1  <0>         0.0251
     60 H33        18.8414   -6.0175   66.2209 H       1  <0>         0.0251
     61 H34        16.2216   -4.9827   68.6831 H       1  <0>         0.0251
     62 H35        15.5453   -6.4869   68.0157 H       1  <0>         0.0251
     63 H36        16.3014   -6.4890   69.6270 H       1  <0>         0.0251
@<TRIPOS>BOND
     1     7    61    1
     2     1    58    1
     3     7    62    1
     4     7    63    1
     5     4     7    1
     6     2    57    1
     7     1    59    1
     8     1     4    1
     9     1    60    1
    10    25    38    1
    11     2     4    1
    12     4    12    1
    13     2     9    1
    14    24    40    1
    15    25    39    1
    16    24    25    1
    17    25    26    1
    18    24    41    1
    19    23    24    1
    20     3     9    1
    21     5     9    2
    22    12    29    1
    23    12    28    1
    24     5    12    1
    25    26    37    1
    26    26    36    1
    27    26    27    1
    28     3    11    1
    29     5    13    1
    30    23    42    1
    31    23    43    1
    32    22    23    1
    33    27    35    1
    34    22    27    1
    35    27    34    1
    36    22    33    1
    37    11    13    2
    38    13    14    1
    39    10    22    1
    40    11    56    1
    41    14    30    1
    42     6    14    1
    43    14    31    1
    44     6    15    1
    45    10    15    1
    46    10    32    1
    47    21    47    1
    48     8    15    2
    49    21    46    1
    50    20    21    1
    51    16    21    1
    52    20    49    1
    53     8    44    1
    54     8    16    1
    55    20    48    1
    56    19    20    1
    57    16    45    1
    58    16    17    1
    59    17    54    1
    60    19    51    1
    61    19    50    1
    62    18    19    1
    63    17    55    1
    64    17    18    1
    65    18    53    1
    66    18    52    1
@<TRIPOS>SUBSTRUCTURE
     1 <0>         1 TEMP              0 ****  ****    0 ROOT

