
  MJ210100                      

 25 28  0  0  0  0  0  0  0  0999 V2000
    2.9311   -7.3536    0.0000 C   0  0  0  0  0  0  0  0  0  0  0  0
    2.1241   -7.1821    0.0000 C   0  0  0  0  0  0  0  0  0  0  0  0
    1.5110   -7.7341    0.0000 C   0  0  0  0  0  0  0  0  0  0  0  0
    0.7965   -7.3216    0.0000 C   0  0  0  0  0  0  0  0  0  0  0  0
    0.9680   -6.5146    0.0000 C   0  0  0  0  0  0  0  0  0  0  0  0
    0.4160   -5.9015    0.0000 C   0  0  0  0  0  0  0  0  0  0  0  0
    0.6709   -5.1169    0.0000 C   0  0  0  0  0  0  0  0  0  0  0  0
    0.1189   -4.5038    0.0000 C   0  0  0  0  0  0  0  0  0  0  0  0
   -0.6880   -4.6753    0.0000 O   0  0  0  0  0  0  0  0  0  0  0  0
    0.3739   -3.7192    0.0000 N   0  0  0  0  0  0  0  0  0  0  0  0
   -0.1781   -3.1061    0.0000 C   0  0  0  0  0  0  0  0  0  0  0  0
    0.0768   -2.3215    0.0000 C   0  0  0  0  0  0  0  0  0  0  0  0
    0.8837   -2.1499    0.0000 C   0  0  0  0  0  0  0  0  0  0  0  0
    1.4358   -2.7631    0.0000 C   0  0  0  0  0  0  0  0  0  0  0  0
    1.1808   -3.5477    0.0000 C   0  0  0  0  0  0  0  0  0  0  0  0
    1.1387   -1.3653    0.0000 C   0  0  0  0  0  0  0  0  0  0  0  0
    0.6537   -0.6979    0.0000 C   0  0  0  0  0  0  0  0  0  0  0  0
    1.1387   -0.0304    0.0000 N   0  0  0  0  0  0  0  0  0  0  0  0
    1.9233   -0.2854    0.0000 C   0  0  0  0  0  0  0  0  0  0  0  0
    2.6378    0.1270    0.0000 N   0  0  0  0  0  0  0  0  0  0  0  0
    3.3522   -0.2854    0.0000 C   0  0  0  0  0  0  0  0  0  0  0  0
    3.3522   -1.1104    0.0000 C   0  0  0  0  0  0  0  0  0  0  0  0
    2.6378   -1.5229    0.0000 C   0  0  0  0  0  0  0  0  0  0  0  0
    1.9233   -1.1104    0.0000 C   0  0  0  0  0  0  0  0  0  0  0  0
    1.7885   -6.4284    0.0000 O   0  0  0  0  0  0  0  0  0  0  0  0
  1  2  1  0  0  0  0
  2  3  2  0  0  0  0
  3  4  1  0  0  0  0
  4  5  2  0  0  0  0
  5  6  1  0  0  0  0
  6  7  1  0  0  0  0
  7  8  1  0  0  0  0
  8  9  2  0  0  0  0
  8 10  1  0  0  0  0
 10 11  1  0  0  0  0
 11 12  1  0  0  0  0
 12 13  1  0  0  0  0
 13 14  2  0  0  0  0
 14 15  1  0  0  0  0
 10 15  1  0  0  0  0
 13 16  1  0  0  0  0
 16 17  2  0  0  0  0
 17 18  1  0  0  0  0
 18 19  1  0  0  0  0
 19 20  2  0  0  0  0
 20 21  1  0  0  0  0
 21 22  2  0  0  0  0
 22 23  1  0  0  0  0
 23 24  2  0  0  0  0
 16 24  1  0  0  0  0
 19 24  1  0  0  0  0
  5 25  1  0  0  0  0
  2 25  1  0  0  0  0
M  END
