Z2632659156
  MJ210100                      

 23 26  0  0  0  0  0  0  0  0999 V2000
    7.3923    4.4441    0.0000 C   0  0  0  0  0  0  0  0  0  0  0  0
    6.9073    3.7767    0.0000 C   0  0  0  0  0  0  0  0  0  0  0  0
    6.0869    3.8629    0.0000 N   0  0  0  0  0  0  0  0  0  0  0  0
    5.5348    3.2499    0.0000 N   0  0  0  0  0  0  0  0  0  0  0  0
    4.7812    3.5854    0.0000 C   0  0  0  0  0  0  0  0  0  0  0  0
    4.0667    3.1729    0.0000 N   0  0  0  0  0  0  0  0  0  0  0  0
    4.0667    2.3479    0.0000 C   0  0  0  0  0  0  0  0  0  0  0  0
    4.7812    1.9354    0.0000 O   0  0  0  0  0  0  0  0  0  0  0  0
    3.3522    1.9354    0.0000 C   0  0  0  0  0  0  0  0  0  0  0  0
    3.3522    1.1104    0.0000 C   0  0  0  0  0  0  0  0  0  0  0  0
    2.6378    0.6979    0.0000 C   0  0  0  0  0  0  0  0  0  0  0  0
    1.9233    1.1104    0.0000 C   0  0  0  0  0  0  0  0  0  0  0  0
    1.1387    0.8554    0.0000 N   0  0  0  0  0  0  0  0  0  0  0  0
    0.6537    1.5229    0.0000 N   0  0  0  0  0  0  0  0  0  0  0  0
    1.1387    2.1903    0.0000 C   0  0  0  0  0  0  0  0  0  0  0  0
    0.8837    2.9749    0.0000 C   0  0  0  0  0  0  0  0  0  0  0  0
    1.9233    1.9354    0.0000 C   0  0  0  0  0  0  0  0  0  0  0  0
    2.6378    2.3479    0.0000 C   0  0  0  0  0  0  0  0  0  0  0  0
    4.8674    4.4059    0.0000 C   0  0  0  0  0  0  0  0  0  0  0  0
    5.6744    4.5774    0.0000 C   0  0  0  0  0  0  0  0  0  0  0  0
    6.0100    5.3311    0.0000 C   0  0  0  0  0  0  0  0  0  0  0  0
    5.9237    6.1516    0.0000 C   0  0  0  0  0  0  0  0  0  0  0  0
    6.6774    5.8160    0.0000 C   0  0  0  0  0  0  0  0  0  0  0  0
  1  2  1  0  0  0  0
  2  3  1  0  0  0  0
  3  4  1  0  0  0  0
  4  5  2  0  0  0  0
  5  6  1  0  0  0  0
  6  7  1  0  0  0  0
  7  8  2  0  0  0  0
  7  9  1  0  0  0  0
  9 10  2  0  0  0  0
 10 11  1  0  0  0  0
 11 12  2  0  0  0  0
 12 13  1  0  0  0  0
 13 14  1  0  0  0  0
 14 15  2  0  0  0  0
 15 16  1  0  0  0  0
 15 17  1  0  0  0  0
 12 17  1  0  0  0  0
 17 18  2  0  0  0  0
  9 18  1  0  0  0  0
  5 19  1  0  0  0  0
 19 20  2  0  0  0  0
  3 20  1  0  0  0  0
 20 21  1  0  0  0  0
 21 22  1  0  0  0  0
 22 23  1  0  0  0  0
 21 23  1  0  0  0  0
M  END
