Z3704235136
  MJ210100                      

 24 26  0  0  0  0  0  0  0  0999 V2000
    0.8211   -0.4741    0.0000 C   0  0  0  0  0  0  0  0  0  0  0  0
    0.8211   -1.2991    0.0000 C   0  0  0  0  0  0  0  0  0  0  0  0
    1.5356   -1.7116    0.0000 C   0  0  0  0  0  0  0  0  0  0  0  0
    0.1067   -1.7116    0.0000 C   0  0  0  0  0  0  0  0  0  0  0  0
    0.1067   -2.5366    0.0000 N   0  0  0  0  0  0  0  0  0  0  0  0
    0.7741   -3.0215    0.0000 C   0  0  0  0  0  0  0  0  0  0  0  0
    0.5192   -3.8061    0.0000 C   0  0  0  0  0  0  0  0  0  0  0  0
   -0.3057   -3.8061    0.0000 C   0  0  0  0  0  0  0  0  0  0  0  0
   -0.7907   -4.4735    0.0000 C   0  0  0  0  0  0  0  0  0  0  0  0
   -0.4551   -5.2272    0.0000 N   0  0  0  0  0  0  0  0  0  0  0  0
    0.3653   -5.3134    0.0000 C   0  0  0  0  0  0  0  0  0  0  0  0
    0.8502   -4.6460    0.0000 O   0  0  0  0  0  0  0  0  0  0  0  0
    0.7008   -6.0671    0.0000 C   0  0  0  0  0  0  0  0  0  0  0  0
    1.5213   -6.1534    0.0000 C   0  0  0  0  0  0  0  0  0  0  0  0
    1.8568   -6.9070    0.0000 C   0  0  0  0  0  0  0  0  0  0  0  0
    1.3720   -7.5745    0.0000 C   0  0  0  0  0  0  0  0  0  0  0  0
    0.5515   -7.4882    0.0000 C   0  0  0  0  0  0  0  0  0  0  0  0
    0.2159   -6.7346    0.0000 C   0  0  0  0  0  0  0  0  0  0  0  0
    1.7075   -8.3282    0.0000 C   0  0  0  0  0  0  0  0  0  0  0  0
    2.5145   -8.4997    0.0000 C   0  0  0  0  0  0  0  0  0  0  0  0
    2.6007   -9.3201    0.0000 N   0  0  0  0  0  0  0  0  0  0  0  0
    1.8470   -9.6557    0.0000 N   0  0  0  0  0  0  0  0  0  0  0  0
    1.2950   -9.0426    0.0000 C   0  0  0  0  0  0  0  0  0  0  0  0
   -0.5607   -3.0215    0.0000 N   0  0  0  0  0  0  0  0  0  0  0  0
  1  2  1  0  0  0  0
  2  3  1  0  0  0  0
  2  4  1  0  0  0  0
  4  5  1  0  0  0  0
  5  6  1  0  0  0  0
  6  7  2  0  0  0  0
  7  8  1  0  0  0  0
  8  9  1  0  0  0  0
  9 10  1  0  0  0  0
 10 11  1  0  0  0  0
 11 12  2  0  0  0  0
 11 13  1  0  0  0  0
 13 14  2  0  0  0  0
 14 15  1  0  0  0  0
 15 16  2  0  0  0  0
 16 17  1  0  0  0  0
 17 18  2  0  0  0  0
 13 18  1  0  0  0  0
 16 19  1  0  0  0  0
 19 20  2  0  0  0  0
 20 21  1  0  0  0  0
 21 22  1  0  0  0  0
 22 23  2  0  0  0  0
 19 23  1  0  0  0  0
  8 24  2  0  0  0  0
  5 24  1  0  0  0  0
M  END
