Z4540473631
  MJ210100                      

 24 26  0  0  0  0  0  0  0  0999 V2000
   -2.1433    6.7660    0.0000 C   0  0  0  0  0  0  0  0  0  0  0  0
   -1.4289    7.1785    0.0000 S   0  0  0  0  0  0  0  0  0  0  0  0
   -1.4289    8.0035    0.0000 C   0  0  0  0  0  0  0  0  0  0  0  0
   -2.1433    8.4160    0.0000 C   0  0  0  0  0  0  0  0  0  0  0  0
   -2.1433    9.2410    0.0000 C   0  0  0  0  0  0  0  0  0  0  0  0
   -1.4289    9.6535    0.0000 C   0  0  0  0  0  0  0  0  0  0  0  0
   -0.7144    9.2410    0.0000 C   0  0  0  0  0  0  0  0  0  0  0  0
    0.0000    9.6535    0.0000 F   0  0  0  0  0  0  0  0  0  0  0  0
   -0.7144    8.4160    0.0000 C   0  0  0  0  0  0  0  0  0  0  0  0
    0.0000    8.0035    0.0000 C   0  0  0  0  0  0  0  0  0  0  0  0
    0.0000    7.1785    0.0000 N   0  0  0  0  0  0  0  0  0  0  0  0
    0.7144    6.7660    0.0000 C   0  0  0  0  0  0  0  0  0  0  0  0
    1.4289    7.1785    0.0000 O   0  0  0  0  0  0  0  0  0  0  0  0
    0.7144    5.9410    0.0000 C   0  0  0  0  0  0  0  0  0  0  0  0
    1.4289    5.5285    0.0000 C   0  0  0  0  0  0  0  0  0  0  0  0
    1.4289    4.7035    0.0000 C   0  0  0  0  0  0  0  0  0  0  0  0
    0.7144    4.2910    0.0000 C   0  0  0  0  0  0  0  0  0  0  0  0
    0.0000    4.7035    0.0000 C   0  0  0  0  0  0  0  0  0  0  0  0
    0.0000    5.5285    0.0000 C   0  0  0  0  0  0  0  0  0  0  0  0
    0.7144    3.4660    0.0000 C   0  0  0  0  0  0  0  0  0  0  0  0
    1.3819    2.9811    0.0000 C   0  0  0  0  0  0  0  0  0  0  0  0
    1.1269    2.1965    0.0000 N   0  0  0  0  0  0  0  0  0  0  0  0
    0.3019    2.1965    0.0000 N   0  0  0  0  0  0  0  0  0  0  0  0
    0.0470    2.9811    0.0000 C   0  0  0  0  0  0  0  0  0  0  0  0
  1  2  1  0  0  0  0
  2  3  1  0  0  0  0
  3  4  2  0  0  0  0
  4  5  1  0  0  0  0
  5  6  2  0  0  0  0
  6  7  1  0  0  0  0
  7  8  1  0  0  0  0
  7  9  2  0  0  0  0
  3  9  1  0  0  0  0
  9 10  1  0  0  0  0
 10 11  1  0  0  0  0
 11 12  1  0  0  0  0
 12 13  2  0  0  0  0
 12 14  1  0  0  0  0
 14 15  2  0  0  0  0
 15 16  1  0  0  0  0
 16 17  2  0  0  0  0
 17 18  1  0  0  0  0
 18 19  2  0  0  0  0
 14 19  1  0  0  0  0
 17 20  1  0  0  0  0
 20 21  2  0  0  0  0
 21 22  1  0  0  0  0
 22 23  1  0  0  0  0
 23 24  2  0  0  0  0
 20 24  1  0  0  0  0
M  END
