Z4540472373
  MJ210100                      

 25 27  0  0  0  0  0  0  0  0999 V2000
   -3.5723   10.0660    0.0000 F   0  0  0  0  0  0  0  0  0  0  0  0
   -2.8578    9.6535    0.0000 C   0  0  0  0  0  0  0  0  0  0  0  0
   -2.1433   10.0660    0.0000 C   0  0  0  0  0  0  0  0  0  0  0  0
   -1.4289    9.6535    0.0000 C   0  0  0  0  0  0  0  0  0  0  0  0
   -1.4289    8.8285    0.0000 C   0  0  0  0  0  0  0  0  0  0  0  0
   -2.1433    8.4160    0.0000 C   0  0  0  0  0  0  0  0  0  0  0  0
   -2.8578    8.8285    0.0000 C   0  0  0  0  0  0  0  0  0  0  0  0
   -0.7144    8.4160    0.0000 C   0  0  0  0  0  0  0  0  0  0  0  0
   -1.1269    7.7015    0.0000 F   0  0  0  0  0  0  0  0  0  0  0  0
   -0.3019    9.1305    0.0000 F   0  0  0  0  0  0  0  0  0  0  0  0
    0.0000    8.0035    0.0000 C   0  0  0  0  0  0  0  0  0  0  0  0
    0.0000    7.1785    0.0000 N   0  0  0  0  0  0  0  0  0  0  0  0
    0.7144    6.7660    0.0000 C   0  0  0  0  0  0  0  0  0  0  0  0
    1.4289    7.1785    0.0000 O   0  0  0  0  0  0  0  0  0  0  0  0
    0.7144    5.9410    0.0000 C   0  0  0  0  0  0  0  0  0  0  0  0
    1.4289    5.5285    0.0000 C   0  0  0  0  0  0  0  0  0  0  0  0
    1.4289    4.7035    0.0000 C   0  0  0  0  0  0  0  0  0  0  0  0
    0.7144    4.2910    0.0000 C   0  0  0  0  0  0  0  0  0  0  0  0
    0.0000    4.7035    0.0000 C   0  0  0  0  0  0  0  0  0  0  0  0
    0.0000    5.5285    0.0000 C   0  0  0  0  0  0  0  0  0  0  0  0
    0.7144    3.4660    0.0000 C   0  0  0  0  0  0  0  0  0  0  0  0
    1.3819    2.9811    0.0000 C   0  0  0  0  0  0  0  0  0  0  0  0
    1.1269    2.1965    0.0000 N   0  0  0  0  0  0  0  0  0  0  0  0
    0.3019    2.1965    0.0000 N   0  0  0  0  0  0  0  0  0  0  0  0
    0.0470    2.9811    0.0000 C   0  0  0  0  0  0  0  0  0  0  0  0
  1  2  1  0  0  0  0
  2  3  2  0  0  0  0
  3  4  1  0  0  0  0
  4  5  2  0  0  0  0
  5  6  1  0  0  0  0
  6  7  2  0  0  0  0
  2  7  1  0  0  0  0
  5  8  1  0  0  0  0
  8  9  1  0  0  0  0
  8 10  1  0  0  0  0
  8 11  1  0  0  0  0
 11 12  1  0  0  0  0
 12 13  1  0  0  0  0
 13 14  2  0  0  0  0
 13 15  1  0  0  0  0
 15 16  2  0  0  0  0
 16 17  1  0  0  0  0
 17 18  2  0  0  0  0
 18 19  1  0  0  0  0
 19 20  2  0  0  0  0
 15 20  1  0  0  0  0
 18 21  1  0  0  0  0
 21 22  2  0  0  0  0
 22 23  1  0  0  0  0
 23 24  1  0  0  0  0
 24 25  2  0  0  0  0
 21 25  1  0  0  0  0
M  END
