Z4540473531
  MJ210100                      

 24 27  0  0  0  0  0  0  0  0999 V2000
   -1.9798    1.7792    0.0000 C   0  0  0  0  0  0  0  0  0  0  0  0
   -1.2654    2.1917    0.0000 O   0  0  0  0  0  0  0  0  0  0  0  0
   -0.5509    1.7792    0.0000 N   0  0  0  0  0  0  0  0  0  0  0  0
   -0.5509    0.9542    0.0000 C   0  0  0  0  0  0  0  0  0  0  0  0
    0.1635    0.5417    0.0000 C   0  0  0  0  0  0  0  0  0  0  0  0
    0.1635   -0.2832    0.0000 C   0  0  0  0  0  0  0  0  0  0  0  0
    0.8779   -0.6957    0.0000 C   0  0  0  0  0  0  0  0  0  0  0  0
    1.5924   -0.2832    0.0000 C   0  0  0  0  0  0  0  0  0  0  0  0
    1.5924    0.5417    0.0000 C   0  0  0  0  0  0  0  0  0  0  0  0
    0.8779    0.9542    0.0000 C   0  0  0  0  0  0  0  0  0  0  0  0
    0.6717    0.1292    0.0000 C   0  0  0  0  0  0  0  0  0  0  0  0
    0.1635    2.1917    0.0000 C   0  0  0  0  0  0  0  0  0  0  0  0
    0.8779    1.7792    0.0000 O   0  0  0  0  0  0  0  0  0  0  0  0
    0.1635    3.0167    0.0000 C   0  0  0  0  0  0  0  0  0  0  0  0
   -0.5509    3.4292    0.0000 C   0  0  0  0  0  0  0  0  0  0  0  0
   -0.5509    4.2542    0.0000 C   0  0  0  0  0  0  0  0  0  0  0  0
    0.1635    4.6667    0.0000 C   0  0  0  0  0  0  0  0  0  0  0  0
    0.8779    4.2542    0.0000 C   0  0  0  0  0  0  0  0  0  0  0  0
    0.8779    3.4292    0.0000 C   0  0  0  0  0  0  0  0  0  0  0  0
    0.1635    5.4917    0.0000 C   0  0  0  0  0  0  0  0  0  0  0  0
   -0.5039    5.9766    0.0000 C   0  0  0  0  0  0  0  0  0  0  0  0
   -0.2490    6.7613    0.0000 N   0  0  0  0  0  0  0  0  0  0  0  0
    0.5760    6.7613    0.0000 N   0  0  0  0  0  0  0  0  0  0  0  0
    0.8309    5.9766    0.0000 C   0  0  0  0  0  0  0  0  0  0  0  0
  1  2  1  0  0  0  0
  2  3  1  0  0  0  0
  3  4  1  0  0  0  0
  4  5  1  0  0  0  0
  5  6  1  0  0  0  0
  6  7  1  0  0  0  0
  7  8  1  0  0  0  0
  8  9  1  0  0  0  0
  9 10  1  0  0  0  0
  5 10  1  0  0  0  0
 10 11  1  0  0  0  0
  7 11  1  0  0  0  0
  3 12  1  0  0  0  0
 12 13  2  0  0  0  0
 12 14  1  0  0  0  0
 14 15  2  0  0  0  0
 15 16  1  0  0  0  0
 16 17  2  0  0  0  0
 17 18  1  0  0  0  0
 18 19  2  0  0  0  0
 14 19  1  0  0  0  0
 17 20  1  0  0  0  0
 20 21  2  0  0  0  0
 21 22  1  0  0  0  0
 22 23  1  0  0  0  0
 23 24  2  0  0  0  0
 20 24  1  0  0  0  0
M  END
