Z4540473297
  MJ210100                      

 23 25  0  0  0  0  0  0  0  0999 V2000
    6.1635    7.0148    0.0000 F   0  0  0  0  0  0  0  0  0  0  0  0
    5.6786    6.3474    0.0000 C   0  0  0  0  0  0  0  0  0  0  0  0
    5.0112    6.8323    0.0000 F   0  0  0  0  0  0  0  0  0  0  0  0
    6.3460    5.8624    0.0000 F   0  0  0  0  0  0  0  0  0  0  0  0
    5.1937    5.6799    0.0000 C   0  0  0  0  0  0  0  0  0  0  0  0
    5.4486    4.8953    0.0000 C   0  0  0  0  0  0  0  0  0  0  0  0
    4.7812    4.4104    0.0000 C   0  0  0  0  0  0  0  0  0  0  0  0
    4.7812    3.5854    0.0000 C   0  0  0  0  0  0  0  0  0  0  0  0
    4.0667    3.1729    0.0000 N   0  0  0  0  0  0  0  0  0  0  0  0
    4.0667    2.3479    0.0000 C   0  0  0  0  0  0  0  0  0  0  0  0
    4.7812    1.9354    0.0000 O   0  0  0  0  0  0  0  0  0  0  0  0
    3.3522    1.9354    0.0000 C   0  0  0  0  0  0  0  0  0  0  0  0
    3.3522    1.1104    0.0000 C   0  0  0  0  0  0  0  0  0  0  0  0
    2.6378    0.6979    0.0000 C   0  0  0  0  0  0  0  0  0  0  0  0
    1.9233    1.1104    0.0000 C   0  0  0  0  0  0  0  0  0  0  0  0
    1.1387    0.8554    0.0000 C   0  0  0  0  0  0  0  0  0  0  0  0
    0.8837    0.0708    0.0000 O   0  0  0  0  0  0  0  0  0  0  0  0
    0.6537    1.5229    0.0000 N   0  0  0  0  0  0  0  0  0  0  0  0
    1.1387    2.1903    0.0000 C   0  0  0  0  0  0  0  0  0  0  0  0
    1.9233    1.9354    0.0000 C   0  0  0  0  0  0  0  0  0  0  0  0
    2.6378    2.3479    0.0000 C   0  0  0  0  0  0  0  0  0  0  0  0
    4.1138    4.8953    0.0000 C   0  0  0  0  0  0  0  0  0  0  0  0
    4.3687    5.6799    0.0000 S   0  0  0  0  0  0  0  0  0  0  0  0
  1  2  1  0  0  0  0
  2  3  1  0  0  0  0
  2  4  1  0  0  0  0
  2  5  1  0  0  0  0
  5  6  2  0  0  0  0
  6  7  1  0  0  0  0
  7  8  1  0  0  0  0
  8  9  1  0  0  0  0
  9 10  1  0  0  0  0
 10 11  2  0  0  0  0
 10 12  1  0  0  0  0
 12 13  2  0  0  0  0
 13 14  1  0  0  0  0
 14 15  2  0  0  0  0
 15 16  1  0  0  0  0
 16 17  2  0  0  0  0
 16 18  1  0  0  0  0
 18 19  1  0  0  0  0
 19 20  1  0  0  0  0
 15 20  1  0  0  0  0
 20 21  2  0  0  0  0
 12 21  1  0  0  0  0
  7 22  2  0  0  0  0
 22 23  1  0  0  0  0
  5 23  1  0  0  0  0
M  END
