Z4540473508
  MJ210100                      

 23 25  0  0  0  0  0  0  0  0999 V2000
    2.0367   -0.4741    0.0000 C   0  0  0  0  0  0  0  0  0  0  0  0
    2.0367   -1.2991    0.0000 O   0  0  0  0  0  0  0  0  0  0  0  0
    2.7511   -1.7116    0.0000 C   0  0  0  0  0  0  0  0  0  0  0  0
    2.7511   -2.5366    0.0000 C   0  0  0  0  0  0  0  0  0  0  0  0
    3.4186   -3.0215    0.0000 N   0  0  0  0  0  0  0  0  0  0  0  0
    3.1636   -3.8061    0.0000 C   0  0  0  0  0  0  0  0  0  0  0  0
    3.6485   -4.4735    0.0000 C   0  0  0  0  0  0  0  0  0  0  0  0
    3.3130   -5.2272    0.0000 N   0  0  0  0  0  0  0  0  0  0  0  0
    3.7979   -5.8946    0.0000 C   0  0  0  0  0  0  0  0  0  0  0  0
    4.6184   -5.8084    0.0000 O   0  0  0  0  0  0  0  0  0  0  0  0
    3.4624   -6.6483    0.0000 C   0  0  0  0  0  0  0  0  0  0  0  0
    3.9473   -7.3158    0.0000 C   0  0  0  0  0  0  0  0  0  0  0  0
    3.6117   -8.0695    0.0000 C   0  0  0  0  0  0  0  0  0  0  0  0
    2.7912   -8.1557    0.0000 C   0  0  0  0  0  0  0  0  0  0  0  0
    2.3063   -7.4882    0.0000 C   0  0  0  0  0  0  0  0  0  0  0  0
    2.6419   -6.7346    0.0000 C   0  0  0  0  0  0  0  0  0  0  0  0
    2.4557   -8.9094    0.0000 C   0  0  0  0  0  0  0  0  0  0  0  0
    2.8682   -9.6238    0.0000 C   0  0  0  0  0  0  0  0  0  0  0  0
    2.3162  -10.2369    0.0000 N   0  0  0  0  0  0  0  0  0  0  0  0
    1.5625   -9.9013    0.0000 N   0  0  0  0  0  0  0  0  0  0  0  0
    1.6487   -9.0809    0.0000 C   0  0  0  0  0  0  0  0  0  0  0  0
    2.3386   -3.8061    0.0000 C   0  0  0  0  0  0  0  0  0  0  0  0
    2.0837   -3.0215    0.0000 S   0  0  0  0  0  0  0  0  0  0  0  0
  1  2  1  0  0  0  0
  2  3  1  0  0  0  0
  3  4  1  0  0  0  0
  4  5  2  0  0  0  0
  5  6  1  0  0  0  0
  6  7  1  0  0  0  0
  7  8  1  0  0  0  0
  8  9  1  0  0  0  0
  9 10  2  0  0  0  0
  9 11  1  0  0  0  0
 11 12  2  0  0  0  0
 12 13  1  0  0  0  0
 13 14  2  0  0  0  0
 14 15  1  0  0  0  0
 15 16  2  0  0  0  0
 11 16  1  0  0  0  0
 14 17  1  0  0  0  0
 17 18  2  0  0  0  0
 18 19  1  0  0  0  0
 19 20  1  0  0  0  0
 20 21  2  0  0  0  0
 17 21  1  0  0  0  0
  6 22  2  0  0  0  0
 22 23  1  0  0  0  0
  4 23  1  0  0  0  0
M  END
