Z4540472356
  MJ210100                      

 25 28  0  0  0  0  0  0  0  0999 V2000
    4.4869   -0.6573    0.0000 O   0  0  0  0  0  0  0  0  0  0  0  0
    4.6302   -1.4698    0.0000 C   0  0  0  0  0  0  0  0  0  0  0  0
    3.9982   -2.0001    0.0000 N   0  0  0  0  0  0  0  0  0  0  0  0
    3.2229   -1.7179    0.0000 C   0  0  0  0  0  0  0  0  0  0  0  0
    2.5909   -2.2482    0.0000 C   0  0  0  0  0  0  0  0  0  0  0  0
    1.9590   -1.7179    0.0000 C   0  0  0  0  0  0  0  0  0  0  0  0
    2.1022   -0.9055    0.0000 C   0  0  0  0  0  0  0  0  0  0  0  0
    1.4702   -0.3752    0.0000 C   0  0  0  0  0  0  0  0  0  0  0  0
    1.6135    0.4372    0.0000 C   0  0  0  0  0  0  0  0  0  0  0  0
    2.3888    0.7194    0.0000 C   0  0  0  0  0  0  0  0  0  0  0  0
    3.0207    0.1891    0.0000 C   0  0  0  0  0  0  0  0  0  0  0  0
    2.8775   -0.6233    0.0000 C   0  0  0  0  0  0  0  0  0  0  0  0
    3.0034   -2.9627    0.0000 C   0  0  0  0  0  0  0  0  0  0  0  0
    2.1784   -2.9627    0.0000 C   0  0  0  0  0  0  0  0  0  0  0  0
    5.4054   -1.7520    0.0000 C   0  0  0  0  0  0  0  0  0  0  0  0
    6.0374   -1.2216    0.0000 C   0  0  0  0  0  0  0  0  0  0  0  0
    6.8126   -1.5038    0.0000 C   0  0  0  0  0  0  0  0  0  0  0  0
    6.9559   -2.3163    0.0000 C   0  0  0  0  0  0  0  0  0  0  0  0
    6.3240   -2.8466    0.0000 C   0  0  0  0  0  0  0  0  0  0  0  0
    5.5487   -2.5644    0.0000 C   0  0  0  0  0  0  0  0  0  0  0  0
    7.7312   -2.5985    0.0000 C   0  0  0  0  0  0  0  0  0  0  0  0
    8.4151   -2.1371    0.0000 C   0  0  0  0  0  0  0  0  0  0  0  0
    9.0652   -2.6450    0.0000 N   0  0  0  0  0  0  0  0  0  0  0  0
    8.7830   -3.4203    0.0000 N   0  0  0  0  0  0  0  0  0  0  0  0
    7.9586   -3.3915    0.0000 C   0  0  0  0  0  0  0  0  0  0  0  0
  1  2  2  0  0  0  0
  2  3  1  0  0  0  0
  3  4  1  0  0  0  0
  4  5  1  0  0  0  0
  5  6  1  0  0  0  0
  6  7  1  0  0  0  0
  7  8  2  0  0  0  0
  8  9  1  0  0  0  0
  9 10  2  0  0  0  0
 10 11  1  0  0  0  0
 11 12  2  0  0  0  0
  7 12  1  0  0  0  0
  5 13  1  0  0  0  0
 13 14  1  0  0  0  0
  5 14  1  0  0  0  0
  2 15  1  0  0  0  0
 15 16  2  0  0  0  0
 16 17  1  0  0  0  0
 17 18  2  0  0  0  0
 18 19  1  0  0  0  0
 19 20  2  0  0  0  0
 15 20  1  0  0  0  0
 18 21  1  0  0  0  0
 21 22  2  0  0  0  0
 22 23  1  0  0  0  0
 23 24  1  0  0  0  0
 24 25  2  0  0  0  0
 21 25  1  0  0  0  0
M  END
