Z4540472138
  MJ210100                      

 25 28  0  0  0  0  0  0  0  0999 V2000
    1.4289   -2.4750    0.0000 O   0  0  0  0  0  0  0  0  0  0  0  0
    1.4289   -1.6500    0.0000 C   0  0  0  0  0  0  0  0  0  0  0  0
    0.7144   -1.2375    0.0000 N   0  0  0  0  0  0  0  0  0  0  0  0
    0.7144   -0.4125    0.0000 C   0  0  0  0  0  0  0  0  0  0  0  0
    1.4289    0.0000    0.0000 C   0  0  0  0  0  0  0  0  0  0  0  0
    2.1433   -0.4125    0.0000 C   0  0  0  0  0  0  0  0  0  0  0  0
    2.8578    0.0000    0.0000 C   0  0  0  0  0  0  0  0  0  0  0  0
    3.5723   -0.4125    0.0000 C   0  0  0  0  0  0  0  0  0  0  0  0
    4.2868    0.0000    0.0000 N   0  0  0  0  0  0  0  0  0  0  0  0
    4.2868    0.8250    0.0000 C   0  0  0  0  0  0  0  0  0  0  0  0
    5.0013    1.2375    0.0000 C   0  0  0  0  0  0  0  0  0  0  0  0
    5.0875    2.0580    0.0000 C   0  0  0  0  0  0  0  0  0  0  0  0
    5.8945    2.2294    0.0000 N   0  0  0  0  0  0  0  0  0  0  0  0
    6.2300    2.9831    0.0000 C   0  0  0  0  0  0  0  0  0  0  0  0
    7.0505    3.0694    0.0000 C   0  0  0  0  0  0  0  0  0  0  0  0
    7.3861    3.8230    0.0000 C   0  0  0  0  0  0  0  0  0  0  0  0
    8.2066    3.9093    0.0000 C   0  0  0  0  0  0  0  0  0  0  0  0
    8.6914    3.2418    0.0000 C   0  0  0  0  0  0  0  0  0  0  0  0
    8.3559    2.4882    0.0000 C   0  0  0  0  0  0  0  0  0  0  0  0
    7.5354    2.4019    0.0000 C   0  0  0  0  0  0  0  0  0  0  0  0
    6.3070    1.5150    0.0000 N   0  0  0  0  0  0  0  0  0  0  0  0
    5.7549    0.9019    0.0000 C   0  0  0  0  0  0  0  0  0  0  0  0
    3.5723   -1.2375    0.0000 C   0  0  0  0  0  0  0  0  0  0  0  0
    2.8578   -1.6500    0.0000 C   0  0  0  0  0  0  0  0  0  0  0  0
    2.1433   -1.2375    0.0000 C   0  0  0  0  0  0  0  0  0  0  0  0
  1  2  2  0  0  0  0
  2  3  1  0  0  0  0
  3  4  1  0  0  0  0
  4  5  2  0  0  0  0
  5  6  1  0  0  0  0
  6  7  2  0  0  0  0
  7  8  1  0  0  0  0
  8  9  1  0  0  0  0
  9 10  1  0  0  0  0
 10 11  1  0  0  0  0
 11 12  2  0  0  0  0
 12 13  1  0  0  0  0
 13 14  1  0  0  0  0
 14 15  1  0  0  0  0
 15 16  2  0  0  0  0
 16 17  1  0  0  0  0
 17 18  2  0  0  0  0
 18 19  1  0  0  0  0
 19 20  2  0  0  0  0
 15 20  1  0  0  0  0
 13 21  1  0  0  0  0
 21 22  2  0  0  0  0
 11 22  1  0  0  0  0
  8 23  2  0  0  0  0
 23 24  1  0  0  0  0
 24 25  2  0  0  0  0
  2 25  1  0  0  0  0
  6 25  1  0  0  0  0
M  END
