Z4540473602
  MJ210100                      

 25 28  0  0  0  0  0  0  0  0999 V2000
    0.0000    0.0000    0.0000 C   0  0  0  0  0  0  0  0  0  0  0  0
    0.7144   -0.4125    0.0000 C   0  0  0  0  0  0  0  0  0  0  0  0
    1.4289    0.0000    0.0000 N   0  0  0  0  0  0  0  0  0  0  0  0
    1.4289    0.8250    0.0000 C   0  0  0  0  0  0  0  0  0  0  0  0
    0.7144    1.2375    0.0000 O   0  0  0  0  0  0  0  0  0  0  0  0
    2.1433    1.2375    0.0000 C   0  0  0  0  0  0  0  0  0  0  0  0
    2.1433    2.0625    0.0000 C   0  0  0  0  0  0  0  0  0  0  0  0
    2.8578    2.4750    0.0000 C   0  0  0  0  0  0  0  0  0  0  0  0
    3.5723    2.0625    0.0000 C   0  0  0  0  0  0  0  0  0  0  0  0
    3.5723    1.2375    0.0000 C   0  0  0  0  0  0  0  0  0  0  0  0
    2.8578    0.8250    0.0000 C   0  0  0  0  0  0  0  0  0  0  0  0
    4.2868    2.4750    0.0000 C   0  0  0  0  0  0  0  0  0  0  0  0
    4.3730    3.2955    0.0000 C   0  0  0  0  0  0  0  0  0  0  0  0
    5.1800    3.4669    0.0000 N   0  0  0  0  0  0  0  0  0  0  0  0
    5.5925    2.7525    0.0000 N   0  0  0  0  0  0  0  0  0  0  0  0
    5.0404    2.1394    0.0000 C   0  0  0  0  0  0  0  0  0  0  0  0
    0.7144   -1.2375    0.0000 C   0  0  0  0  0  0  0  0  0  0  0  0
    1.1269   -1.9519    0.0000 C   0  0  0  0  0  0  0  0  0  0  0  0
    0.3019   -1.9519    0.0000 C   0  0  0  0  0  0  0  0  0  0  0  0
   -0.4125   -2.3644    0.0000 C   0  0  0  0  0  0  0  0  0  0  0  0
   -0.4125   -3.1894    0.0000 C   0  0  0  0  0  0  0  0  0  0  0  0
   -1.1269   -3.6019    0.0000 C   0  0  0  0  0  0  0  0  0  0  0  0
   -1.8414   -3.1894    0.0000 C   0  0  0  0  0  0  0  0  0  0  0  0
   -1.8414   -2.3644    0.0000 C   0  0  0  0  0  0  0  0  0  0  0  0
   -1.1269   -1.9519    0.0000 C   0  0  0  0  0  0  0  0  0  0  0  0
  1  2  1  0  0  0  0
  2  3  1  0  0  0  0
  3  4  1  0  0  0  0
  4  5  2  0  0  0  0
  4  6  1  0  0  0  0
  6  7  2  0  0  0  0
  7  8  1  0  0  0  0
  8  9  2  0  0  0  0
  9 10  1  0  0  0  0
 10 11  2  0  0  0  0
  6 11  1  0  0  0  0
  9 12  1  0  0  0  0
 12 13  2  0  0  0  0
 13 14  1  0  0  0  0
 14 15  1  0  0  0  0
 15 16  2  0  0  0  0
 12 16  1  0  0  0  0
  2 17  1  0  0  0  0
 17 18  1  0  0  0  0
 18 19  1  0  0  0  0
 17 19  1  0  0  0  0
 19 20  1  0  0  0  0
 20 21  2  0  0  0  0
 21 22  1  0  0  0  0
 22 23  2  0  0  0  0
 23 24  1  0  0  0  0
 24 25  2  0  0  0  0
 20 25  1  0  0  0  0
M  END
