Z4540472702
  MJ210100                      

 24 26  0  0  0  0  0  0  0  0999 V2000
    4.2868   10.4785    0.0000 C   0  0  0  0  0  0  0  0  0  0  0  0
    4.2868    9.6535    0.0000 O   0  0  0  0  0  0  0  0  0  0  0  0
    3.5723    9.2410    0.0000 C   0  0  0  0  0  0  0  0  0  0  0  0
    3.5723    8.4160    0.0000 C   0  0  0  0  0  0  0  0  0  0  0  0
    4.2868    8.0035    0.0000 C   0  0  0  0  0  0  0  0  0  0  0  0
    4.2868    7.1785    0.0000 C   0  0  0  0  0  0  0  0  0  0  0  0
    3.5723    6.7660    0.0000 C   0  0  0  0  0  0  0  0  0  0  0  0
    2.8578    7.1785    0.0000 C   0  0  0  0  0  0  0  0  0  0  0  0
    2.1433    6.7660    0.0000 C   0  0  0  0  0  0  0  0  0  0  0  0
    1.4289    7.1785    0.0000 C   0  0  0  0  0  0  0  0  0  0  0  0
    1.4289    8.0035    0.0000 O   0  0  0  0  0  0  0  0  0  0  0  0
    0.7144    6.7660    0.0000 N   0  0  0  0  0  0  0  0  0  0  0  0
    0.7144    5.9410    0.0000 C   0  0  0  0  0  0  0  0  0  0  0  0
    1.4289    5.5285    0.0000 C   0  0  0  0  0  0  0  0  0  0  0  0
    1.4289    4.7035    0.0000 C   0  0  0  0  0  0  0  0  0  0  0  0
    0.7144    4.2910    0.0000 C   0  0  0  0  0  0  0  0  0  0  0  0
    0.0000    4.7035    0.0000 C   0  0  0  0  0  0  0  0  0  0  0  0
    0.0000    5.5285    0.0000 C   0  0  0  0  0  0  0  0  0  0  0  0
    0.7144    3.4660    0.0000 C   0  0  0  0  0  0  0  0  0  0  0  0
    1.3819    2.9811    0.0000 C   0  0  0  0  0  0  0  0  0  0  0  0
    1.1269    2.1965    0.0000 N   0  0  0  0  0  0  0  0  0  0  0  0
    0.3019    2.1965    0.0000 N   0  0  0  0  0  0  0  0  0  0  0  0
    0.0470    2.9811    0.0000 C   0  0  0  0  0  0  0  0  0  0  0  0
    2.8578    8.0035    0.0000 C   0  0  0  0  0  0  0  0  0  0  0  0
  1  2  1  0  0  0  0
  2  3  1  0  0  0  0
  3  4  1  0  0  0  0
  4  5  2  0  0  0  0
  5  6  1  0  0  0  0
  6  7  2  0  0  0  0
  7  8  1  0  0  0  0
  8  9  1  0  0  0  0
  9 10  1  0  0  0  0
 10 11  2  0  0  0  0
 10 12  1  0  0  0  0
 12 13  1  0  0  0  0
 13 14  2  0  0  0  0
 14 15  1  0  0  0  0
 15 16  2  0  0  0  0
 16 17  1  0  0  0  0
 17 18  2  0  0  0  0
 13 18  1  0  0  0  0
 16 19  1  0  0  0  0
 19 20  2  0  0  0  0
 20 21  1  0  0  0  0
 21 22  1  0  0  0  0
 22 23  2  0  0  0  0
 19 23  1  0  0  0  0
  8 24  2  0  0  0  0
  4 24  1  0  0  0  0
M  END
