
##########                                Name:        LGF_361_2QD9
##########                    Molecular_Weight:             550.522
##########                DOCK_Rotatable_Bonds:                   8
##########                       Formal_Charge:        -0.000100166
##########                     HBond_Acceptors:                  13
##########                        HBond_Donors:                   2
##########                         Heavy_Atoms:                  40
##########                            HA_RMSDs:               0.322
##########                            HA_RMSDh:               0.322
##########                            HA_RMSDm:               0.322
##########                          Grid_Score:          -68.427689
##########                     Grid_vdw_energy:          -68.066727
##########                      Grid_es_energy:           -0.360959
##########           Internal_energy_repulsive:           17.517555

@<TRIPOS>MOLECULE
LGF_361_2QD9
 64 69 1 0 0
SMALL
USER_CHARGES


@<TRIPOS>ATOM
      1 C1          2.1558    0.4691   23.8442 C.3     1  <0>         0.0447
      2 C2         -4.1262    1.1928   16.0471 C.ar    1  <0>        -0.0256
      3 C3         -3.4472    1.5868   17.1587 C.ar    1  <0>        -0.0458
      4 C4         -6.0062    0.2014   17.1871 C.ar    1  <0>         0.0095
      5 C5         -1.7952   -1.6123   25.9044 C.ar    1  <0>        -0.0344
      6 C6         -0.9720   -0.2323   29.1987 C.2     1  <0>         0.0068
      7 C7         -2.3539    2.4274   21.4046 C.2     1  <0>         0.0485
      8 C8         -5.4608   -3.7806   32.4726 C.3     1  <0>        -0.0095
      9 C9         -3.1877   -0.9552   20.4326 C.3     1  <0>         0.0342
     10 C10        -5.2059   -2.3230   32.0143 C.3     1  <0>         0.0176
     11 C11        -1.9677   -1.6476   21.0858 C.3     1  <0>         0.0315
     12 C12        -1.7082    0.3708   22.6652 C.3     1  <0>         0.0548
     13 C13        -3.2613   -3.6725   31.5231 C.3     1  <0>         0.0411
     14 C14        -5.3709    0.5046   16.0685 C.ar    1  <0>         0.1262
     15 C15        -4.0868    1.2138   18.4050 C.ar    1  <0>         0.0505
     16 C16        -1.2592   -0.9907   27.1053 C.ar    1  <0>         0.0281
     17 C17        -0.9895   -1.4371   24.8389 C.ar    1  <0>         0.0867
     18 C18        -5.3196    0.6207   18.3682 C.ar    1  <0>         0.1365
     19 C19        -1.8196   -0.9853   28.4767 C.2     1  <0>         0.0511
     20 C20        -2.3551    1.1042   21.5759 C.2     1  <0>         0.0477
     21 C21        -0.1653   -0.2827   27.0855 C.ar    1  <0>         0.1333
     22 C22         0.2812   -0.5939   24.9398 C.ar    1  <0>         0.1818
     23 C23        -3.4462    1.5212   19.7309 C.2     1  <0>         0.1354
     24 C24        -4.5249   -4.5331   31.5402 C.3     1  <0>         0.0724
     25 C25        -1.4373   -2.0366   23.4849 C.2     1  <0>         0.2511
     26 C26        -3.0408   -1.6734   28.9924 C.2     1  <0>         0.2493
     27 C27        -3.4961   -1.4200   30.4270 C.2     1  <0>         0.2871
     28 N1          0.0451    0.1869   28.3394 N.pl3   1  <0>        -0.3045
     29 N2         -3.0353    2.6608   20.1671 N.2     1  <0>        -0.2377
     30 N3          0.6361   -0.0887   26.0225 N.ar    1  <0>        -0.2072
     31 N4         -2.9986    0.5030   20.5949 N.pl3   1  <0>        -0.2839
     32 N5         -1.8290   -1.0529   22.4469 N.am    1  <0>        -0.2903
     33 N6         -3.9459   -2.4331   31.2729 N.am    1  <0>        -0.2923
     34 O1         -5.0525   -4.7259   30.2292 O.3     1  <0>        -0.3902
     35 O2         -1.4424   -3.1980   23.1790 O.2     1  <0>        -0.2698
     36 O3         -3.6680   -2.4851   28.2911 O.2     1  <0>        -0.2817
     37 O4         -3.4329   -0.2818   30.9091 O.2     1  <0>        -0.2664
     38 O5          0.9967   -0.4296   23.8031 O.3     1  <0>        -0.3309
     39 F1         -5.8786    0.0045   14.9674 F       1  <0>        -0.2054
     40 F2         -5.9197    0.2362   19.5365 F       1  <0>        -0.2047
     41 H1          2.6320    0.4997   22.8532 H       1  <0>         0.0529
     42 H2          1.8256    1.4805   24.1236 H       1  <0>         0.0529
     43 H3          2.8788    0.1010   24.5871 H       1  <0>         0.0529
     44 H4         -3.6911    1.4175   15.0845 H       1  <0>         0.0646
     45 H5         -2.5143    2.1294   17.1162 H       1  <0>         0.0626
     46 H6         -6.9547   -0.3145   17.2067 H       1  <0>         0.0675
     47 H7         -2.7304   -2.1515   25.8708 H       1  <0>         0.0633
     48 H8         -1.0613    0.0045   30.2487 H       1  <0>         0.0789
     49 H9         -1.9271    3.1692   22.0634 H       1  <0>         0.0846
     50 H10        -5.2164   -3.9383   33.5335 H       1  <0>         0.0306
     51 H11        -6.5112   -4.0837   32.3512 H       1  <0>         0.0306
     52 H12        -3.2473   -1.2153   19.3655 H       1  <0>         0.0484
     53 H13        -4.1171   -1.2761   20.9257 H       1  <0>         0.0484
     54 H14        -6.0215   -1.9461   31.3796 H       1  <0>         0.0465
     55 H15        -5.1181   -1.6358   32.8688 H       1  <0>         0.0465
     56 H16        -2.1304   -2.7334   21.1535 H       1  <0>         0.0480
     57 H17        -1.0590   -1.4697   20.4921 H       1  <0>         0.0480
     58 H18        -0.6430    0.6427   22.7032 H       1  <0>         0.0527
     59 H19        -2.1921    0.6340   23.6172 H       1  <0>         0.0527
     60 H20        -2.6832   -3.6929   32.4588 H       1  <0>         0.0490
     61 H21        -2.5295   -3.9528   30.7511 H       1  <0>         0.0490
     62 H22        -4.3480   -5.5598   31.8932 H       1  <0>         0.0609
     63 H23         0.8217    0.7552   28.6113 H       1  <0>         0.1530
     64 H24        -4.4197   -5.1956   29.6986 H       1  <0>         0.2098
@<TRIPOS>BOND
     1     1    38    1
     2     2     3   ar
     3     2    14   ar
     4     3    15   ar
     5     4    14   ar
     6     4    18   ar
     7     5    16   ar
     8     5    17   ar
     9     6    19    2
    10     6    28    1
    11     7    20    2
    12     7    29    1
    13     8    10    1
    14     8    24    1
    15     9    11    1
    16     9    31    1
    17    10    33    1
    18    11    32    1
    19    12    20    1
    20    12    32    1
    21    13    24    1
    22    13    33    1
    23    14    39    1
    24    15    18   ar
    25    15    23    1
    26    16    19    1
    27    16    21   ar
    28    17    22   ar
    29    17    25    1
    30    18    40    1
    31    19    26    1
    32    20    31    1
    33    21    28    1
    34    21    30   ar
    35    22    30   ar
    36    22    38    1
    37    23    29    2
    38    23    31    1
    39    24    34    1
    40    25    32   am
    41    25    35    2
    42    26    27    1
    43    26    36    2
    44    27    33   am
    45    27    37    2
    46     1    41    1
    47     1    42    1
    48     1    43    1
    49     2    44    1
    50     3    45    1
    51     4    46    1
    52     5    47    1
    53     6    48    1
    54     7    49    1
    55     8    50    1
    56     8    51    1
    57     9    52    1
    58     9    53    1
    59    10    54    1
    60    10    55    1
    61    11    56    1
    62    11    57    1
    63    12    58    1
    64    12    59    1
    65    13    60    1
    66    13    61    1
    67    24    62    1
    68    28    63    1
    69    34    64    1
@<TRIPOS>SUBSTRUCTURE
     1 <0>         1 TEMP              0 ****  ****    0 ROOT

