
##########                                Name:          WOW_1_3KBA
##########                    Molecular_Weight:             403.932
##########                DOCK_Rotatable_Bonds:                   5
##########                       Formal_Charge:        -0.000299942
##########                     HBond_Acceptors:                   7
##########                        HBond_Donors:                   0
##########                         Heavy_Atoms:                  27
##########                            HA_RMSDs:               0.502
##########                            HA_RMSDh:               0.502
##########                            HA_RMSDm:               0.502
##########                          Grid_Score:          -58.223518
##########                     Grid_vdw_energy:          -59.311150
##########                      Grid_es_energy:            1.087632
##########           Internal_energy_repulsive:           45.032551

@<TRIPOS>MOLECULE
WOW_1_3KBA
 49 51 1 0 0
SMALL
USER_CHARGES


@<TRIPOS>ATOM
      1 C1         -0.1099   -8.5664   21.9053 C.3     1  <0>        -0.0394
      2 C2         -3.0999   -6.3227   20.2345 C.3     1  <0>         0.0734
      3 C3         -2.5224  -11.3622   21.1907 C.ar    1  <0>        -0.0615
      4 C4         -3.4362  -11.2256   22.2317 C.ar    1  <0>        -0.0614
      5 C5         -1.4584  -10.4757   21.0772 C.ar    1  <0>        -0.0585
      6 C6         -3.2403  -10.2521   23.2065 C.ar    1  <0>        -0.0568
      7 C7         -4.3836   -8.8224   26.9795 C.ar    1  <0>        -0.0393
      8 C8         -4.5258   -9.5803   28.1372 C.ar    1  <0>        -0.0412
      9 C9         -2.1632   -9.7015   26.6485 C.ar    1  <0>        -0.0210
     10 C10        -3.0229   -5.5876   25.0295 C.3     1  <0>        -0.0157
     11 C11        -2.9553   -5.1145   23.5779 C.3     1  <0>         0.0310
     12 C12        -4.6599   -6.7350   23.7833 C.3     1  <0>         0.0478
     13 C13        -2.0025   -8.3222   24.1525 C.3     1  <0>         0.0378
     14 C14        -3.6579  -11.2074   29.7879 C.1     1  <0>         0.1006
     15 C15        -1.2697   -9.4850   22.0418 C.ar    1  <0>        -0.0458
     16 C16        -3.2055   -8.8789   26.2344 C.ar    1  <0>         0.0317
     17 C17        -2.1808   -9.3567   23.0970 C.ar    1  <0>        -0.0273
     18 C18        -3.4907  -10.4109   28.5460 C.ar    1  <0>         0.0701
     19 C19        -2.3226  -10.4933   27.7817 C.ar    1  <0>         0.0600
     20 C20        -3.8026   -6.8619   24.9829 C.3     1  <0>         0.0423
     21 N1         -3.7903  -11.8251   30.7263 N.1     1  <0>        -0.1908
     22 N2         -3.8962   -5.9300   22.8307 N.pl3   1  <0>        -0.2369
     23 N3         -3.0658   -8.0781   25.0707 N.pl3   1  <0>        -0.3209
     24 O1         -3.2751   -4.0015   21.4203 O.2     1  <0>        -0.1556
     25 O2         -5.2497   -5.1105   20.9448 O.2     1  <0>        -0.1556
     26 S1         -3.9097   -5.2692   21.3595 S.o2    1  <0>         0.0386
     27 Cl1        -0.9783  -11.4222   28.3037 Cl      1  <0>        -0.0822
     28 H1         -0.4028   -7.6917   21.3061 H       1  <0>         0.0278
     29 H2          0.2146   -8.2352   22.9028 H       1  <0>         0.0278
     30 H3          0.7174   -9.0922   21.4062 H       1  <0>         0.0278
     31 H4         -3.1113   -5.8686   19.2327 H       1  <0>         0.0482
     32 H5         -2.0590   -6.4727   20.5571 H       1  <0>         0.0482
     33 H6         -3.6177   -7.2927   20.2030 H       1  <0>         0.0482
     34 H7         -2.6405  -12.1581   20.4704 H       1  <0>         0.0618
     35 H8         -4.2974  -11.8753   22.2829 H       1  <0>         0.0618
     36 H9         -0.7775  -10.5533   20.2425 H       1  <0>         0.0620
     37 H10        -3.9121  -10.1913   24.0500 H       1  <0>         0.0621
     38 H11        -5.1923   -8.1845   26.6547 H       1  <0>         0.0636
     39 H12        -5.4363   -9.5230   28.7151 H       1  <0>         0.0631
     40 H13        -1.2364   -9.7255   26.0944 H       1  <0>         0.0651
     41 H14        -2.0151   -5.7564   25.4368 H       1  <0>         0.0299
     42 H15        -3.5233   -4.8419   25.6646 H       1  <0>         0.0299
     43 H16        -3.2284   -4.0513   23.5075 H       1  <0>         0.0478
     44 H17        -1.9376   -5.2405   23.1800 H       1  <0>         0.0478
     45 H18        -4.8875   -7.7250   23.3615 H       1  <0>         0.0496
     46 H19        -5.6105   -6.2419   24.0350 H       1  <0>         0.0496
     47 H20        -1.1388   -8.6396   24.7552 H       1  <0>         0.0513
     48 H21        -1.8209   -7.3723   23.6283 H       1  <0>         0.0513
     49 H22        -4.3928   -6.9706   25.9047 H       1  <0>         0.0516
@<TRIPOS>BOND
     1     1    15    1
     2     2    26    1
     3     3     4   ar
     4     3     5   ar
     5     4     6   ar
     6     5    15   ar
     7     6    17   ar
     8     7     8   ar
     9     7    16   ar
    10     8    18   ar
    11     9    16   ar
    12     9    19   ar
    13    10    11    1
    14    10    20    1
    15    11    22    1
    16    12    20    1
    17    12    22    1
    18    13    17    1
    19    13    23    1
    20    14    18    1
    21    14    21    3
    22    15    17   ar
    23    16    23    1
    24    18    19   ar
    25    19    27    1
    26    20    23    1
    27    22    26    1
    28    24    26    2
    29    25    26    2
    30     1    28    1
    31     1    29    1
    32     1    30    1
    33     2    31    1
    34     2    32    1
    35     2    33    1
    36     3    34    1
    37     4    35    1
    38     5    36    1
    39     6    37    1
    40     7    38    1
    41     8    39    1
    42     9    40    1
    43    10    41    1
    44    10    42    1
    45    11    43    1
    46    11    44    1
    47    12    45    1
    48    12    46    1
    49    13    47    1
    50    13    48    1
    51    20    49    1
@<TRIPOS>SUBSTRUCTURE
     1 <0>         1 TEMP              0 ****  ****    0 ROOT

