
##########                                Name:          WOW_1_3KBA
##########                    Molecular_Weight:             403.932
##########                DOCK_Rotatable_Bonds:                   5
##########                       Formal_Charge:        -0.000299942
##########                     HBond_Acceptors:                   7
##########                        HBond_Donors:                   0
##########                         Heavy_Atoms:                  27
##########                            HA_RMSDs:               0.485
##########                            HA_RMSDh:               0.485
##########                            HA_RMSDm:               0.485
##########                          Grid_Score:          -56.610847
##########                     Grid_vdw_energy:          -57.194698
##########                      Grid_es_energy:            0.583850
##########           Internal_energy_repulsive:           36.181782

@<TRIPOS>MOLECULE
WOW_1_3KBA
 49 51 1 0 0
SMALL
USER_CHARGES


@<TRIPOS>ATOM
      1 C1         -0.0677   -8.5138   22.5644 C.3     1  <0>        -0.0394
      2 C2         -2.7800   -6.9127   20.2848 C.3     1  <0>         0.0734
      3 C3         -2.4416  -11.2486   21.5480 C.ar    1  <0>        -0.0615
      4 C4         -3.4655  -11.1002   22.4791 C.ar    1  <0>        -0.0614
      5 C5         -1.3528  -10.3852   21.5666 C.ar    1  <0>        -0.0585
      6 C6         -3.3619  -10.1396   23.4804 C.ar    1  <0>        -0.0568
      7 C7         -4.2971   -7.7751   27.5708 C.ar    1  <0>        -0.0393
      8 C8         -4.4979   -8.3079   28.8399 C.ar    1  <0>        -0.0412
      9 C9         -3.0978   -9.7571   26.9029 C.ar    1  <0>        -0.0210
     10 C10        -3.5481   -5.4661   24.9592 C.3     1  <0>        -0.0157
     11 C11        -3.1910   -5.1498   23.5073 C.3     1  <0>         0.0310
     12 C12        -4.7458   -6.9258   23.5507 C.3     1  <0>         0.0478
     13 C13        -2.1997   -8.2461   24.5828 C.3     1  <0>         0.0378
     14 C14        -4.2278  -10.1226   30.5012 C.1     1  <0>         0.1006
     15 C15        -1.2548   -9.4072   22.5572 C.ar    1  <0>        -0.0458
     16 C16        -3.5977   -8.4946   26.6016 C.ar    1  <0>         0.0317
     17 C17        -2.2779   -9.2674   23.5026 C.ar    1  <0>        -0.0273
     18 C18        -4.0096   -9.5731   29.1391 C.ar    1  <0>         0.0701
     19 C19        -3.3374  -10.3084   28.1579 C.ar    1  <0>         0.0600
     20 C20        -4.1794   -6.8200   24.9138 C.3     1  <0>         0.0423
     21 N1         -4.4061  -10.5476   31.5342 N.1     1  <0>        -0.1908
     22 N2         -3.8584   -6.1462   22.6885 N.pl3   1  <0>        -0.2369
     23 N3         -3.3772   -7.9251   25.3202 N.pl3   1  <0>        -0.3209
     24 O1         -2.8156   -4.4689   21.2075 O.2     1  <0>        -0.1556
     25 O2         -4.8339   -5.3952   20.5568 O.2     1  <0>        -0.1556
     26 S1         -3.5921   -5.6561   21.1752 S.o2    1  <0>         0.0386
     27 Cl1        -2.6248  -11.8278   28.5132 Cl      1  <0>        -0.0822
     28 H1         -0.2712   -7.6278   21.9452 H       1  <0>         0.0278
     29 H2          0.1474   -8.1984   23.5960 H       1  <0>         0.0278
     30 H3          0.8000   -9.0538   22.1575 H       1  <0>         0.0278
     31 H4         -2.6003   -6.5746   19.2536 H       1  <0>         0.0482
     32 H5         -1.8188   -7.1417   20.7681 H       1  <0>         0.0482
     33 H6         -3.4077   -7.8158   20.2702 H       1  <0>         0.0482
     34 H7         -2.4933  -12.0355   20.8103 H       1  <0>         0.0618
     35 H8         -4.3405  -11.7308   22.4242 H       1  <0>         0.0618
     36 H9         -0.5826  -10.4711   20.8145 H       1  <0>         0.0620
     37 H10        -4.1244  -10.0708   24.2421 H       1  <0>         0.0621
     38 H11        -4.6861   -6.7960   27.3337 H       1  <0>         0.0636
     39 H12        -5.0308   -7.7406   29.5887 H       1  <0>         0.0631
     40 H13        -2.5275  -10.3058   26.1679 H       1  <0>         0.0651
     41 H14        -2.6500   -5.4707   25.5944 H       1  <0>         0.0299
     42 H15        -4.2455   -4.7190   25.3658 H       1  <0>         0.0299
     43 H16        -3.5341   -4.1398   23.2388 H       1  <0>         0.0478
     44 H17        -2.1020   -5.1988   23.3603 H       1  <0>         0.0478
     45 H18        -4.7812   -7.9758   23.2246 H       1  <0>         0.0496
     46 H19        -5.7688   -6.5225   23.5222 H       1  <0>         0.0496
     47 H20        -1.4690   -8.6229   25.3137 H       1  <0>         0.0513
     48 H21        -1.8694   -7.3125   24.1038 H       1  <0>         0.0513
     49 H22        -4.9537   -6.8955   25.6915 H       1  <0>         0.0516
@<TRIPOS>BOND
     1     1    15    1
     2     2    26    1
     3     3     4   ar
     4     3     5   ar
     5     4     6   ar
     6     5    15   ar
     7     6    17   ar
     8     7     8   ar
     9     7    16   ar
    10     8    18   ar
    11     9    16   ar
    12     9    19   ar
    13    10    11    1
    14    10    20    1
    15    11    22    1
    16    12    20    1
    17    12    22    1
    18    13    17    1
    19    13    23    1
    20    14    18    1
    21    14    21    3
    22    15    17   ar
    23    16    23    1
    24    18    19   ar
    25    19    27    1
    26    20    23    1
    27    22    26    1
    28    24    26    2
    29    25    26    2
    30     1    28    1
    31     1    29    1
    32     1    30    1
    33     2    31    1
    34     2    32    1
    35     2    33    1
    36     3    34    1
    37     4    35    1
    38     5    36    1
    39     6    37    1
    40     7    38    1
    41     8    39    1
    42     9    40    1
    43    10    41    1
    44    10    42    1
    45    11    43    1
    46    11    44    1
    47    12    45    1
    48    12    46    1
    49    13    47    1
    50    13    48    1
    51    20    49    1
@<TRIPOS>SUBSTRUCTURE
     1 <0>         1 TEMP              0 ****  ****    0 ROOT

