
##########                                Name:          WOW_1_3KBA
##########                    Molecular_Weight:             403.932
##########                DOCK_Rotatable_Bonds:                   5
##########                       Formal_Charge:        -0.000299942
##########                     HBond_Acceptors:                   7
##########                        HBond_Donors:                   0
##########                         Heavy_Atoms:                  27
##########                            HA_RMSDs:               0.496
##########                            HA_RMSDh:               0.496
##########                            HA_RMSDm:               0.496
##########                          Grid_Score:          -57.354462
##########                     Grid_vdw_energy:          -57.941483
##########                      Grid_es_energy:            0.587021
##########           Internal_energy_repulsive:           83.152130

@<TRIPOS>MOLECULE
WOW_1_3KBA
 49 51 1 0 0
SMALL
USER_CHARGES


@<TRIPOS>ATOM
      1 C1         -0.0807   -8.9230   21.8451 C.3     1  <0>        -0.0394
      2 C2         -2.3287   -6.4716   20.1207 C.3     1  <0>         0.0734
      3 C3         -2.6377  -11.5058   20.8765 C.ar    1  <0>        -0.0615
      4 C4         -3.6036  -11.3377   21.8646 C.ar    1  <0>        -0.0614
      5 C5         -1.5076  -10.6973   20.8626 C.ar    1  <0>        -0.0585
      6 C6         -3.4005  -10.4156   22.8867 C.ar    1  <0>        -0.0568
      7 C7         -4.4188   -8.7723   26.9018 C.ar    1  <0>        -0.0393
      8 C8         -4.5316   -9.3890   28.1434 C.ar    1  <0>        -0.0412
      9 C9         -2.2856   -9.8363   26.5408 C.ar    1  <0>        -0.0210
     10 C10        -3.3857   -5.8498   24.8543 C.3     1  <0>        -0.0157
     11 C11        -3.0152   -5.3162   23.4709 C.3     1  <0>         0.0310
     12 C12        -4.5464   -7.0967   23.2273 C.3     1  <0>         0.0478
     13 C13        -2.0897   -8.6166   23.9808 C.3     1  <0>         0.0378
     14 C14        -3.6610  -10.8858   29.9120 C.1     1  <0>         0.1006
     15 C15        -1.3098   -9.7572   21.8748 C.ar    1  <0>        -0.0458
     16 C16        -3.2989   -8.9918   26.0994 C.ar    1  <0>         0.0317
     17 C17        -2.2745   -9.5981   22.8768 C.ar    1  <0>        -0.0273
     18 C18        -3.5264  -10.2416   28.5809 C.ar    1  <0>         0.0701
     19 C19        -2.4193  -10.4881   27.7630 C.ar    1  <0>         0.0600
     20 C20        -3.9982   -7.1889   24.5987 C.3     1  <0>         0.0423
     21 N1         -3.7697  -11.3878   30.9198 N.1     1  <0>        -0.1908
     22 N2         -3.6591   -6.1870   22.5035 N.pl3   1  <0>        -0.2369
     23 N3         -3.1862   -8.3329   24.8471 N.pl3   1  <0>        -0.3209
     24 O1         -2.8040   -4.1983   21.3168 O.2     1  <0>        -0.1556
     25 O2         -4.6082   -5.3228   20.4029 O.2     1  <0>        -0.1556
     26 S1         -3.3809   -5.4735   21.0840 S.o2    1  <0>         0.0386
     27 Cl1        -1.1050  -11.4477   28.3055 Cl      1  <0>        -0.0822
     28 H1         -0.2712   -8.0089   21.2637 H       1  <0>         0.0278
     29 H2          0.2029   -8.6514   22.8726 H       1  <0>         0.0278
     30 H3          0.7367   -9.4912   21.3771 H       1  <0>         0.0278
     31 H4         -2.1416   -5.9817   19.1538 H       1  <0>         0.0482
     32 H5         -1.3749   -6.6155   20.6493 H       1  <0>         0.0482
     33 H6         -2.8049   -7.4485   19.9505 H       1  <0>         0.0482
     34 H7         -2.7667  -12.2655   20.1199 H       1  <0>         0.0618
     35 H8         -4.5107  -11.9231   21.8378 H       1  <0>         0.0618
     36 H9         -0.7824  -10.7964   20.0684 H       1  <0>         0.0620
     37 H10        -4.1183  -10.3342   23.6895 H       1  <0>         0.0621
     38 H11        -5.2051   -8.1178   26.5558 H       1  <0>         0.0636
     39 H12        -5.3962   -9.2058   28.7640 H       1  <0>         0.0631
     40 H13        -1.4011   -9.9851   25.9391 H       1  <0>         0.0651
     41 H14        -2.4955   -5.9387   25.4943 H       1  <0>         0.0299
     42 H15        -4.0980   -5.1797   25.3578 H       1  <0>         0.0299
     43 H16        -3.3687   -4.2815   23.3512 H       1  <0>         0.0478
     44 H17        -1.9239   -5.3303   23.3336 H       1  <0>         0.0478
     45 H18        -4.5636   -8.0866   22.7479 H       1  <0>         0.0496
     46 H19        -5.5743   -6.7054   23.2448 H       1  <0>         0.0496
     47 H20        -1.2857   -9.0140   24.6177 H       1  <0>         0.0513
     48 H21        -1.8150   -7.6633   23.5056 H       1  <0>         0.0513
     49 H22        -4.7808   -7.3885   25.3455 H       1  <0>         0.0516
@<TRIPOS>BOND
     1     1    15    1
     2     2    26    1
     3     3     4   ar
     4     3     5   ar
     5     4     6   ar
     6     5    15   ar
     7     6    17   ar
     8     7     8   ar
     9     7    16   ar
    10     8    18   ar
    11     9    16   ar
    12     9    19   ar
    13    10    11    1
    14    10    20    1
    15    11    22    1
    16    12    20    1
    17    12    22    1
    18    13    17    1
    19    13    23    1
    20    14    18    1
    21    14    21    3
    22    15    17   ar
    23    16    23    1
    24    18    19   ar
    25    19    27    1
    26    20    23    1
    27    22    26    1
    28    24    26    2
    29    25    26    2
    30     1    28    1
    31     1    29    1
    32     1    30    1
    33     2    31    1
    34     2    32    1
    35     2    33    1
    36     3    34    1
    37     4    35    1
    38     5    36    1
    39     6    37    1
    40     7    38    1
    41     8    39    1
    42     9    40    1
    43    10    41    1
    44    10    42    1
    45    11    43    1
    46    11    44    1
    47    12    45    1
    48    12    46    1
    49    13    47    1
    50    13    48    1
    51    20    49    1
@<TRIPOS>SUBSTRUCTURE
     1 <0>         1 TEMP              0 ****  ****    0 ROOT

