
##########                                Name:          WOW_1_3KBA
##########                    Molecular_Weight:             403.932
##########                DOCK_Rotatable_Bonds:                   5
##########                       Formal_Charge:        -0.000299942
##########                     HBond_Acceptors:                   7
##########                        HBond_Donors:                   0
##########                         Heavy_Atoms:                  27
##########                            HA_RMSDs:               0.488
##########                            HA_RMSDh:               0.488
##########                            HA_RMSDm:               0.488
##########                          Grid_Score:          -56.486603
##########                     Grid_vdw_energy:          -56.482010
##########                      Grid_es_energy:           -0.004593
##########           Internal_energy_repulsive:           44.745789

@<TRIPOS>MOLECULE
WOW_1_3KBA
 49 51 1 0 0
SMALL
USER_CHARGES


@<TRIPOS>ATOM
      1 C1          0.1151   -8.6658   22.4089 C.3     1  <0>        -0.0394
      2 C2         -1.9555   -6.5216   20.4230 C.3     1  <0>         0.0734
      3 C3         -2.1526  -11.3840   21.1377 C.ar    1  <0>        -0.0615
      4 C4         -3.2274  -11.2957   22.0177 C.ar    1  <0>        -0.0614
      5 C5         -1.0817  -10.5063   21.2559 C.ar    1  <0>        -0.0585
      6 C6         -3.1944  -10.3827   23.0673 C.ar    1  <0>        -0.0568
      7 C7         -4.4174   -8.2763   27.2279 C.ar    1  <0>        -0.0393
      8 C8         -4.5619   -8.7682   28.5209 C.ar    1  <0>        -0.0412
      9 C9         -2.6976   -9.9043   26.7756 C.ar    1  <0>        -0.0210
     10 C10        -3.8880   -5.8895   24.8252 C.3     1  <0>        -0.0157
     11 C11        -3.3937   -5.3871   23.4692 C.3     1  <0>         0.0310
     12 C12        -4.5964   -7.3946   23.1573 C.3     1  <0>         0.0478
     13 C13        -2.1262   -8.5270   24.3190 C.3     1  <0>         0.0378
     14 C14        -3.9461  -10.3459   30.3258 C.1     1  <0>         0.1006
     15 C15        -1.0540   -9.5755   22.2953 C.ar    1  <0>        -0.0458
     16 C16        -3.4871   -8.8395   26.3541 C.ar    1  <0>         0.0317
     17 C17        -2.1286   -9.4965   23.1893 C.ar    1  <0>        -0.0273
     18 C18        -3.7827   -9.8387   28.9399 C.ar    1  <0>         0.0701
     19 C19        -2.8736  -10.4252   28.0539 C.ar    1  <0>         0.0600
     20 C20        -4.2545   -7.3200   24.5952 C.3     1  <0>         0.0423
     21 N1         -4.0802  -10.7419   31.3769 N.1     1  <0>        -0.1908
     22 N2         -3.7509   -6.4024   22.4944 N.pl3   1  <0>        -0.2369
     23 N3         -3.3325   -8.3077   25.0471 N.pl3   1  <0>        -0.3209
     24 O1         -3.1414   -4.3510   21.2638 O.2     1  <0>        -0.1556
     25 O2         -4.4423   -5.9282   20.1799 O.2     1  <0>        -0.1556
     26 S1         -3.3674   -5.7391   21.0752 S.o2    1  <0>         0.0386
     27 Cl1        -1.8161  -11.6775   28.5597 Cl      1  <0>        -0.0822
     28 H1         -0.0705   -7.7543   21.8219 H       1  <0>         0.0278
     29 H2          0.2691   -8.3970   23.4644 H       1  <0>         0.0278
     30 H3          1.0126   -9.1727   22.0248 H       1  <0>         0.0278
     31 H4         -1.6974   -6.0665   19.4555 H       1  <0>         0.0482
     32 H5         -1.1140   -6.4004   21.1211 H       1  <0>         0.0482
     33 H6         -2.1628   -7.5924   20.2807 H       1  <0>         0.0482
     34 H7         -2.1510  -12.1354   20.3620 H       1  <0>         0.0618
     35 H8         -4.0871  -11.9360   21.8859 H       1  <0>         0.0618
     36 H9         -0.2710  -10.5445   20.5435 H       1  <0>         0.0620
     37 H10        -3.9977  -10.3619   23.7889 H       1  <0>         0.0621
     38 H11        -5.0308   -7.4510   26.8976 H       1  <0>         0.0636
     39 H12        -5.2763   -8.3200   29.1956 H       1  <0>         0.0631
     40 H13        -1.9530  -10.3238   26.1152 H       1  <0>         0.0651
     41 H14        -3.1015   -5.8016   25.5892 H       1  <0>         0.0299
     42 H15        -4.7577   -5.3096   25.1677 H       1  <0>         0.0299
     43 H16        -3.8709   -4.4285   23.2177 H       1  <0>         0.0478
     44 H17        -2.3038   -5.2399   23.4884 H       1  <0>         0.0478
     45 H18        -4.3975   -8.4016   22.7619 H       1  <0>         0.0496
     46 H19        -5.6608   -7.1670   22.9983 H       1  <0>         0.0496
     47 H20        -1.3886   -8.8989   25.0454 H       1  <0>         0.0513
     48 H21        -1.8401   -7.5542   23.8924 H       1  <0>         0.0513
     49 H22        -5.1038   -7.5943   25.2381 H       1  <0>         0.0516
@<TRIPOS>BOND
     1     1    15    1
     2     2    26    1
     3     3     4   ar
     4     3     5   ar
     5     4     6   ar
     6     5    15   ar
     7     6    17   ar
     8     7     8   ar
     9     7    16   ar
    10     8    18   ar
    11     9    16   ar
    12     9    19   ar
    13    10    11    1
    14    10    20    1
    15    11    22    1
    16    12    20    1
    17    12    22    1
    18    13    17    1
    19    13    23    1
    20    14    18    1
    21    14    21    3
    22    15    17   ar
    23    16    23    1
    24    18    19   ar
    25    19    27    1
    26    20    23    1
    27    22    26    1
    28    24    26    2
    29    25    26    2
    30     1    28    1
    31     1    29    1
    32     1    30    1
    33     2    31    1
    34     2    32    1
    35     2    33    1
    36     3    34    1
    37     4    35    1
    38     5    36    1
    39     6    37    1
    40     7    38    1
    41     8    39    1
    42     9    40    1
    43    10    41    1
    44    10    42    1
    45    11    43    1
    46    11    44    1
    47    12    45    1
    48    12    46    1
    49    13    47    1
    50    13    48    1
    51    20    49    1
@<TRIPOS>SUBSTRUCTURE
     1 <0>         1 TEMP              0 ****  ****    0 ROOT

