
##########                                Name:          WOW_1_3KBA
##########                    Molecular_Weight:             403.932
##########                DOCK_Rotatable_Bonds:                   5
##########                       Formal_Charge:        -0.000299942
##########                     HBond_Acceptors:                   7
##########                        HBond_Donors:                   0
##########                         Heavy_Atoms:                  27
##########                            HA_RMSDs:               0.493
##########                            HA_RMSDh:               0.493
##########                            HA_RMSDm:               0.493
##########                          Grid_Score:          -56.641148
##########                     Grid_vdw_energy:          -57.254288
##########                      Grid_es_energy:            0.613140
##########           Internal_energy_repulsive:           59.993355

@<TRIPOS>MOLECULE
WOW_1_3KBA
 49 51 1 0 0
SMALL
USER_CHARGES


@<TRIPOS>ATOM
      1 C1          0.0724   -8.7475   22.1748 C.3     1  <0>        -0.0394
      2 C2         -2.6575   -6.0685   20.1056 C.3     1  <0>         0.0734
      3 C3         -2.2229  -11.6223   21.3907 C.ar    1  <0>        -0.0615
      4 C4         -3.2993  -11.3686   22.2359 C.ar    1  <0>        -0.0614
      5 C5         -1.1422  -10.7492   21.3580 C.ar    1  <0>        -0.0585
      6 C6         -3.2589  -10.2853   23.1083 C.ar    1  <0>        -0.0568
      7 C7         -4.4383   -8.4670   26.9873 C.ar    1  <0>        -0.0393
      8 C8         -4.4865   -9.0487   28.2499 C.ar    1  <0>        -0.0412
      9 C9         -2.2803   -9.4637   26.5847 C.ar    1  <0>        -0.0210
     10 C10        -3.8051   -5.6109   24.9698 C.3     1  <0>        -0.0157
     11 C11        -3.3697   -4.9610   23.6570 C.3     1  <0>         0.0310
     12 C12        -4.6306   -6.8987   23.1784 C.3     1  <0>         0.0478
     13 C13        -2.1732   -8.2498   24.0190 C.3     1  <0>         0.0378
     14 C14        -3.5022  -10.4576   30.0310 C.1     1  <0>         0.1006
     15 C15        -1.1069   -9.6502   22.2172 C.ar    1  <0>        -0.0458
     16 C16        -3.3384   -8.6705   26.1536 C.ar    1  <0>         0.0317
     17 C17        -2.1833   -9.4031   23.0778 C.ar    1  <0>        -0.0273
     18 C18        -3.4363   -9.8505   28.6775 C.ar    1  <0>         0.0701
     19 C19        -2.3488  -10.0819   27.8295 C.ar    1  <0>         0.0600
     20 C20        -4.2142   -6.9987   24.5949 C.3     1  <0>         0.0423
     21 N1         -3.5584  -10.9318   31.0564 N.1     1  <0>        -0.1908
     22 N2         -3.7985   -5.8492   22.5912 N.pl3   1  <0>        -0.2369
     23 N3         -3.2922   -8.0470   24.8792 N.pl3   1  <0>        -0.3209
     24 O1         -2.6756   -3.9036   21.5676 O.2     1  <0>        -0.1556
     25 O2         -4.6893   -4.6009   20.6655 O.2     1  <0>        -0.1556
     26 S1         -3.4735   -5.0303   21.2403 S.o2    1  <0>         0.0386
     27 Cl1        -0.9822  -10.9760   28.3546 Cl      1  <0>        -0.0822
     28 H1         -0.1008   -7.9517   21.4354 H       1  <0>         0.0278
     29 H2          0.2262   -8.2985   23.1672 H       1  <0>         0.0278
     30 H3          0.9651   -9.3239   21.8906 H       1  <0>         0.0278
     31 H4         -2.4377   -5.5064   19.1859 H       1  <0>         0.0482
     32 H5         -1.7171   -6.4283   20.5487 H       1  <0>         0.0482
     33 H6         -3.3018   -6.9269   19.8652 H       1  <0>         0.0482
     34 H7         -2.2276  -12.4986   20.7596 H       1  <0>         0.0618
     35 H8         -4.1659  -12.0127   22.2145 H       1  <0>         0.0618
     36 H9         -0.3297  -10.9212   20.6676 H       1  <0>         0.0620
     37 H10        -4.0642  -10.1289   23.8108 H       1  <0>         0.0621
     38 H11        -5.2596   -7.8524   26.6495 H       1  <0>         0.0636
     39 H12        -5.3362   -8.8778   28.8943 H       1  <0>         0.0631
     40 H13        -1.4115   -9.5990   25.9574 H       1  <0>         0.0651
     41 H14        -2.9788   -5.6257   25.6958 H       1  <0>         0.0299
     42 H15        -4.6432   -5.0614   25.4232 H       1  <0>         0.0299
     43 H16        -3.8380   -3.9721   23.5443 H       1  <0>         0.0478
     44 H17        -2.2773   -4.8343   23.6350 H       1  <0>         0.0478
     45 H18        -4.4743   -7.8555   22.6586 H       1  <0>         0.0496
     46 H19        -5.6965   -6.6373   23.1039 H       1  <0>         0.0496
     47 H20        -1.3004   -8.3911   24.6734 H       1  <0>         0.0513
     48 H21        -2.0900   -7.3445   23.3995 H       1  <0>         0.0513
     49 H22        -5.0354   -7.3330   25.2460 H       1  <0>         0.0516
@<TRIPOS>BOND
     1     1    15    1
     2     2    26    1
     3     3     4   ar
     4     3     5   ar
     5     4     6   ar
     6     5    15   ar
     7     6    17   ar
     8     7     8   ar
     9     7    16   ar
    10     8    18   ar
    11     9    16   ar
    12     9    19   ar
    13    10    11    1
    14    10    20    1
    15    11    22    1
    16    12    20    1
    17    12    22    1
    18    13    17    1
    19    13    23    1
    20    14    18    1
    21    14    21    3
    22    15    17   ar
    23    16    23    1
    24    18    19   ar
    25    19    27    1
    26    20    23    1
    27    22    26    1
    28    24    26    2
    29    25    26    2
    30     1    28    1
    31     1    29    1
    32     1    30    1
    33     2    31    1
    34     2    32    1
    35     2    33    1
    36     3    34    1
    37     4    35    1
    38     5    36    1
    39     6    37    1
    40     7    38    1
    41     8    39    1
    42     9    40    1
    43    10    41    1
    44    10    42    1
    45    11    43    1
    46    11    44    1
    47    12    45    1
    48    12    46    1
    49    13    47    1
    50    13    48    1
    51    20    49    1
@<TRIPOS>SUBSTRUCTURE
     1 <0>         1 TEMP              0 ****  ****    0 ROOT

