
##########                                Name:          WOW_1_3KBA
##########                    Molecular_Weight:             403.932
##########                DOCK_Rotatable_Bonds:                   5
##########                       Formal_Charge:        -0.000299942
##########                     HBond_Acceptors:                   7
##########                        HBond_Donors:                   0
##########                         Heavy_Atoms:                  27
##########                            HA_RMSDs:               0.454
##########                            HA_RMSDh:               0.454
##########                            HA_RMSDm:               0.454
##########                          Grid_Score:          -53.815254
##########                     Grid_vdw_energy:          -55.481632
##########                      Grid_es_energy:            1.666380
##########           Internal_energy_repulsive:           57.896729

@<TRIPOS>MOLECULE
WOW_1_3KBA
 49 51 1 0 0
SMALL
USER_CHARGES


@<TRIPOS>ATOM
      1 C1         -0.0672   -8.3785   22.4648 C.3     1  <0>        -0.0394
      2 C2         -3.4137   -7.1319   20.4152 C.3     1  <0>         0.0734
      3 C3         -2.4202  -11.1192   21.4164 C.ar    1  <0>        -0.0615
      4 C4         -3.3242  -11.1414   22.4745 C.ar    1  <0>        -0.0614
      5 C5         -1.3792  -10.1986   21.4089 C.ar    1  <0>        -0.0585
      6 C6         -3.1399  -10.2971   23.5652 C.ar    1  <0>        -0.0568
      7 C7         -4.6248   -8.4998   27.3405 C.ar    1  <0>        -0.0393
      8 C8         -4.9682   -9.1651   28.5127 C.ar    1  <0>        -0.0412
      9 C9         -2.5903   -9.7833   27.1802 C.ar    1  <0>        -0.0210
     10 C10        -2.8235   -5.6475   25.1232 C.3     1  <0>        -0.0157
     11 C11        -2.7120   -5.3795   23.6228 C.3     1  <0>         0.0310
     12 C12        -4.5550   -6.8010   24.0185 C.3     1  <0>         0.0478
     13 C13        -1.9375   -8.4745   24.7415 C.3     1  <0>         0.0378
     14 C14        -4.5083  -10.8457   30.2705 C.1     1  <0>         0.1006
     15 C15        -1.2027   -9.3362   22.4917 C.ar    1  <0>        -0.0458
     16 C16        -3.4383   -8.8044   26.6730 C.ar    1  <0>         0.0317
     17 C17        -2.1037   -9.3684   23.5628 C.ar    1  <0>        -0.0273
     18 C18        -4.1285  -10.1509   29.0144 C.ar    1  <0>         0.0701
     19 C19        -2.9555  -10.4800   28.3281 C.ar    1  <0>         0.0600
     20 C20        -3.7139   -6.8426   25.2354 C.3     1  <0>         0.0423
     21 N1         -4.8040  -11.3852   31.2198 N.1     1  <0>        -0.1908
     22 N2         -3.7211   -6.2006   22.9778 N.pl3   1  <0>        -0.2369
     23 N3         -3.0890   -8.0967   25.4931 N.pl3   1  <0>        -0.3209
     24 O1         -2.6367   -4.7881   21.2681 O.2     1  <0>        -0.1556
     25 O2         -4.9138   -5.1604   21.0922 O.2     1  <0>        -0.1556
     26 S1         -3.6736   -5.7427   21.4320 S.o2    1  <0>         0.0386
     27 Cl1        -1.8368  -11.6135   28.9655 Cl      1  <0>        -0.0822
     28 H1         -0.3884   -7.4415   21.9863 H       1  <0>         0.0278
     29 H2          0.2614   -8.1705   23.4937 H       1  <0>         0.0278
     30 H3          0.7664   -8.8142   21.8945 H       1  <0>         0.0278
     31 H4         -3.3820   -6.8154   19.3622 H       1  <0>         0.0482
     32 H5         -2.4595   -7.6090   20.6835 H       1  <0>         0.0482
     33 H6         -4.2354   -7.8492   20.5577 H       1  <0>         0.0482
     34 H7         -2.5278  -11.8183   20.6004 H       1  <0>         0.0618
     35 H8         -4.1688  -11.8140   22.4490 H       1  <0>         0.0618
     36 H9         -0.7070  -10.1505   20.5651 H       1  <0>         0.0620
     37 H10        -3.8026  -10.3628   24.4155 H       1  <0>         0.0621
     38 H11        -5.2826   -7.7408   26.9435 H       1  <0>         0.0636
     39 H12        -5.8830   -8.9163   29.0301 H       1  <0>         0.0631
     40 H13        -1.6548  -10.0013   26.6863 H       1  <0>         0.0651
     41 H14        -1.8353   -5.8491   25.5625 H       1  <0>         0.0299
     42 H15        -3.2559   -4.7826   25.6475 H       1  <0>         0.0299
     43 H16        -2.8888   -4.3151   23.4087 H       1  <0>         0.0478
     44 H17        -1.7091   -5.6468   23.2584 H       1  <0>         0.0478
     45 H18        -4.8697   -7.8143   23.7284 H       1  <0>         0.0496
     46 H19        -5.4579   -6.1966   24.1902 H       1  <0>         0.0496
     47 H20        -1.2709   -9.0022   25.4395 H       1  <0>         0.0513
     48 H21        -1.4941   -7.5415   24.3633 H       1  <0>         0.0513
     49 H22        -4.3126   -6.7751   26.1557 H       1  <0>         0.0516
@<TRIPOS>BOND
     1     1    15    1
     2     2    26    1
     3     3     4   ar
     4     3     5   ar
     5     4     6   ar
     6     5    15   ar
     7     6    17   ar
     8     7     8   ar
     9     7    16   ar
    10     8    18   ar
    11     9    16   ar
    12     9    19   ar
    13    10    11    1
    14    10    20    1
    15    11    22    1
    16    12    20    1
    17    12    22    1
    18    13    17    1
    19    13    23    1
    20    14    18    1
    21    14    21    3
    22    15    17   ar
    23    16    23    1
    24    18    19   ar
    25    19    27    1
    26    20    23    1
    27    22    26    1
    28    24    26    2
    29    25    26    2
    30     1    28    1
    31     1    29    1
    32     1    30    1
    33     2    31    1
    34     2    32    1
    35     2    33    1
    36     3    34    1
    37     4    35    1
    38     5    36    1
    39     6    37    1
    40     7    38    1
    41     8    39    1
    42     9    40    1
    43    10    41    1
    44    10    42    1
    45    11    43    1
    46    11    44    1
    47    12    45    1
    48    12    46    1
    49    13    47    1
    50    13    48    1
    51    20    49    1
@<TRIPOS>SUBSTRUCTURE
     1 <0>         1 TEMP              0 ****  ****    0 ROOT

