
##########                                Name:          WOW_1_3KBA
##########                    Molecular_Weight:             403.932
##########                DOCK_Rotatable_Bonds:                   5
##########                       Formal_Charge:        -0.000299942
##########                     HBond_Acceptors:                   7
##########                        HBond_Donors:                   0
##########                         Heavy_Atoms:                  27
##########                            HA_RMSDs:               0.581
##########                            HA_RMSDh:               0.581
##########                            HA_RMSDm:               0.581
##########                          Grid_Score:          -59.766266
##########                     Grid_vdw_energy:          -60.151817
##########                      Grid_es_energy:            0.385551
##########           Internal_energy_repulsive:           52.695442

@<TRIPOS>MOLECULE
WOW_1_3KBA
 49 51 1 0 0
SMALL
USER_CHARGES


@<TRIPOS>ATOM
      1 C1          0.3050   -8.6004   22.0426 C.3     1  <0>        -0.0394
      2 C2         -3.2126   -6.6312   19.7357 C.3     1  <0>         0.0734
      3 C3         -2.1096  -11.3353   21.1277 C.ar    1  <0>        -0.0615
      4 C4         -3.1692  -11.0843   21.9946 C.ar    1  <0>        -0.0614
      5 C5         -0.9949  -10.5057   21.1317 C.ar    1  <0>        -0.0585
      6 C6         -3.0793  -10.0515   22.9228 C.ar    1  <0>        -0.0568
      7 C7         -4.3708   -8.5017   26.7076 C.ar    1  <0>        -0.0393
      8 C8         -4.5123   -9.1568   27.9264 C.ar    1  <0>        -0.0412
      9 C9         -2.1055   -9.3037   26.5129 C.ar    1  <0>        -0.0210
     10 C10        -3.2021   -5.3967   24.5724 C.3     1  <0>        -0.0157
     11 C11        -3.0228   -5.0008   23.1073 C.3     1  <0>         0.0310
     12 C12        -4.5928   -6.7585   23.2457 C.3     1  <0>         0.0478
     13 C13        -1.9062   -8.1123   23.9303 C.3     1  <0>         0.0378
     14 C14        -3.6211  -10.5851   29.7408 C.1     1  <0>         0.1006
     15 C15        -0.9095   -9.4562   22.0476 C.ar    1  <0>        -0.0458
     16 C16        -3.1707   -8.5713   25.9996 C.ar    1  <0>         0.0317
     17 C17        -1.9692   -9.2125   22.9295 C.ar    1  <0>        -0.0273
     18 C18        -3.4538   -9.8981   28.4351 C.ar    1  <0>         0.0701
     19 C19        -2.2620   -9.9956   27.7100 C.ar    1  <0>         0.0600
     20 C20        -3.8592   -6.7384   24.5307 C.3     1  <0>         0.0423
     21 N1         -3.7528  -11.1202   30.7286 N.1     1  <0>        -0.1908
     22 N2         -3.8053   -5.9404   22.3241 N.pl3   1  <0>        -0.2369
     23 N3         -3.0333   -7.8741   24.7708 N.pl3   1  <0>        -0.3209
     24 O1         -2.8121   -4.2767   20.7944 O.2     1  <0>        -0.1556
     25 O2         -5.0031   -4.9252   20.4281 O.2     1  <0>        -0.1556
     26 S1         -3.7205   -5.3665   20.8192 S.o2    1  <0>         0.0386
     27 Cl1        -0.8936  -10.8099   28.3479 Cl      1  <0>        -0.0822
     28 H1          0.1591   -7.7601   21.3480 H       1  <0>         0.0278
     29 H2          0.4834   -8.2115   23.0559 H       1  <0>         0.0278
     30 H3          1.1718   -9.1961   21.7204 H       1  <0>         0.0278
     31 H4         -3.1560   -6.2358   18.7107 H       1  <0>         0.0482
     32 H5         -2.2223   -6.9999   20.0414 H       1  <0>         0.0482
     33 H6         -3.9384   -7.4569   19.7704 H       1  <0>         0.0482
     34 H7         -2.1540  -12.1759   20.4511 H       1  <0>         0.0618
     35 H8         -4.0613  -11.6912   21.9468 H       1  <0>         0.0618
     36 H9         -0.1947  -10.6730   20.4260 H       1  <0>         0.0620
     37 H10        -3.8729   -9.9007   23.6397 H       1  <0>         0.0621
     38 H11        -5.1971   -7.9342   26.3059 H       1  <0>         0.0636
     39 H12        -5.4405   -9.0893   28.4744 H       1  <0>         0.0631
     40 H13        -1.1632   -9.3352   25.9859 H       1  <0>         0.0651
     41 H14        -2.2322   -5.4482   25.0888 H       1  <0>         0.0299
     42 H15        -3.8295   -4.6664   25.1045 H       1  <0>         0.0299
     43 H16        -3.3779   -3.9731   22.9410 H       1  <0>         0.0478
     44 H17        -1.9617   -5.0537   22.8224 H       1  <0>         0.0478
     45 H18        -4.6879   -7.7874   22.8682 H       1  <0>         0.0496
     46 H19        -5.6037   -6.3425   23.3683 H       1  <0>         0.0496
     47 H20        -1.0652   -8.3488   24.5988 H       1  <0>         0.0513
     48 H21        -1.7415   -7.1850   23.3620 H       1  <0>         0.0513
     49 H22        -4.5319   -6.8500   25.3939 H       1  <0>         0.0516
@<TRIPOS>BOND
     1     1    15    1
     2     2    26    1
     3     3     4   ar
     4     3     5   ar
     5     4     6   ar
     6     5    15   ar
     7     6    17   ar
     8     7     8   ar
     9     7    16   ar
    10     8    18   ar
    11     9    16   ar
    12     9    19   ar
    13    10    11    1
    14    10    20    1
    15    11    22    1
    16    12    20    1
    17    12    22    1
    18    13    17    1
    19    13    23    1
    20    14    18    1
    21    14    21    3
    22    15    17   ar
    23    16    23    1
    24    18    19   ar
    25    19    27    1
    26    20    23    1
    27    22    26    1
    28    24    26    2
    29    25    26    2
    30     1    28    1
    31     1    29    1
    32     1    30    1
    33     2    31    1
    34     2    32    1
    35     2    33    1
    36     3    34    1
    37     4    35    1
    38     5    36    1
    39     6    37    1
    40     7    38    1
    41     8    39    1
    42     9    40    1
    43    10    41    1
    44    10    42    1
    45    11    43    1
    46    11    44    1
    47    12    45    1
    48    12    46    1
    49    13    47    1
    50    13    48    1
    51    20    49    1
@<TRIPOS>SUBSTRUCTURE
     1 <0>         1 TEMP              0 ****  ****    0 ROOT

