
##########                                Name:          WOW_1_3KBA
##########                    Molecular_Weight:             403.932
##########                DOCK_Rotatable_Bonds:                   5
##########                       Formal_Charge:        -0.000299942
##########                     HBond_Acceptors:                   7
##########                        HBond_Donors:                   0
##########                         Heavy_Atoms:                  27
##########                            HA_RMSDs:               0.438
##########                            HA_RMSDh:               0.438
##########                            HA_RMSDm:               0.438
##########                          Grid_Score:          -61.940498
##########                     Grid_vdw_energy:          -62.994343
##########                      Grid_es_energy:            1.053843
##########           Internal_energy_repulsive:           32.018814

@<TRIPOS>MOLECULE
WOW_1_3KBA
 49 51 1 0 0
SMALL
USER_CHARGES


@<TRIPOS>ATOM
      1 C1         -0.0287   -8.4708   22.3121 C.3     1  <0>        -0.0394
      2 C2         -2.8479   -6.5149   20.2295 C.3     1  <0>         0.0734
      3 C3         -2.3501  -11.2006   21.1691 C.ar    1  <0>        -0.0615
      4 C4         -3.3679  -11.1265   22.1155 C.ar    1  <0>        -0.0614
      5 C5         -1.2809  -10.3147   21.2252 C.ar    1  <0>        -0.0585
      6 C6         -3.2762  -10.2193   23.1666 C.ar    1  <0>        -0.0568
      7 C7         -4.1950   -8.1860   27.4393 C.ar    1  <0>        -0.0393
      8 C8         -4.2591   -8.7338   28.7162 C.ar    1  <0>        -0.0412
      9 C9         -2.6199   -9.8823   26.7652 C.ar    1  <0>        -0.0210
     10 C10        -3.8604   -5.7407   25.1164 C.3     1  <0>        -0.0157
     11 C11        -3.4331   -5.1624   23.7679 C.3     1  <0>         0.0310
     12 C12        -4.6560   -7.1488   23.4037 C.3     1  <0>         0.0478
     13 C13        -2.1464   -8.3617   24.3601 C.3     1  <0>         0.0378
     14 C14        -3.5887  -10.4325   30.3868 C.1     1  <0>         0.1006
     15 C15        -1.1953   -9.3896   22.2666 C.ar    1  <0>        -0.0458
     16 C16        -3.3771   -8.7554   26.4630 C.ar    1  <0>         0.0317
     17 C17        -2.2121   -9.3247   23.2268 C.ar    1  <0>        -0.0273
     18 C18        -3.5127   -9.8657   29.0165 C.ar    1  <0>         0.0701
     19 C19        -2.7182  -10.4564   28.0289 C.ar    1  <0>         0.0600
     20 C20        -4.2423   -7.1558   24.8245 C.3     1  <0>         0.0423
     21 N1         -3.6571  -10.8729   31.4265 N.1     1  <0>        -0.1908
     22 N2         -3.8418   -6.1208   22.7564 N.pl3   1  <0>        -0.2369
     23 N3         -3.3018   -8.1677   25.1730 N.pl3   1  <0>        -0.3209
     24 O1         -2.6351   -4.3025   21.6023 O.2     1  <0>        -0.1556
     25 O2         -4.7372   -4.8814   20.8271 O.2     1  <0>        -0.1556
     26 S1         -3.5279   -5.3783   21.3594 S.o2    1  <0>         0.0386
     27 Cl1        -1.6985  -11.7896   28.3831 Cl      1  <0>        -0.0822
     28 H1         -0.2582   -7.5575   21.7436 H       1  <0>         0.0278
     29 H2          0.1893   -8.2067   23.3574 H       1  <0>         0.0278
     30 H3          0.8469   -8.9679   21.8691 H       1  <0>         0.0278
     31 H4         -2.6353   -6.0048   19.2784 H       1  <0>         0.0482
     32 H5         -1.9146   -6.9269   20.6409 H       1  <0>         0.0482
     33 H6         -3.5640   -7.3315   20.0553 H       1  <0>         0.0482
     34 H7         -2.3912  -11.9476   20.3902 H       1  <0>         0.0618
     35 H8         -4.2290  -11.7732   22.0340 H       1  <0>         0.0618
     36 H9         -0.5164  -10.3420   20.4630 H       1  <0>         0.0620
     37 H10        -4.0327  -10.2093   23.9374 H       1  <0>         0.0621
     38 H11        -4.7837   -7.3123   27.2015 H       1  <0>         0.0636
     39 H12        -4.8860   -8.2812   29.4702 H       1  <0>         0.0631
     40 H13        -1.9601  -10.3087   26.0240 H       1  <0>         0.0651
     41 H14        -3.0363   -5.6963   25.8437 H       1  <0>         0.0299
     42 H15        -4.7102   -5.1809   25.5343 H       1  <0>         0.0299
     43 H16        -3.9195   -4.1910   23.5951 H       1  <0>         0.0478
     44 H17        -2.3432   -5.0167   23.7406 H       1  <0>         0.0478
     45 H18        -4.4802   -8.1318   22.9425 H       1  <0>         0.0496
     46 H19        -5.7264   -6.9124   23.3115 H       1  <0>         0.0496
     47 H20        -1.3531   -8.7248   25.0301 H       1  <0>         0.0513
     48 H21        -1.9078   -7.3817   23.9211 H       1  <0>         0.0513
     49 H22        -5.0592   -7.4660   25.4928 H       1  <0>         0.0516
@<TRIPOS>BOND
     1     1    15    1
     2     2    26    1
     3     3     4   ar
     4     3     5   ar
     5     4     6   ar
     6     5    15   ar
     7     6    17   ar
     8     7     8   ar
     9     7    16   ar
    10     8    18   ar
    11     9    16   ar
    12     9    19   ar
    13    10    11    1
    14    10    20    1
    15    11    22    1
    16    12    20    1
    17    12    22    1
    18    13    17    1
    19    13    23    1
    20    14    18    1
    21    14    21    3
    22    15    17   ar
    23    16    23    1
    24    18    19   ar
    25    19    27    1
    26    20    23    1
    27    22    26    1
    28    24    26    2
    29    25    26    2
    30     1    28    1
    31     1    29    1
    32     1    30    1
    33     2    31    1
    34     2    32    1
    35     2    33    1
    36     3    34    1
    37     4    35    1
    38     5    36    1
    39     6    37    1
    40     7    38    1
    41     8    39    1
    42     9    40    1
    43    10    41    1
    44    10    42    1
    45    11    43    1
    46    11    44    1
    47    12    45    1
    48    12    46    1
    49    13    47    1
    50    13    48    1
    51    20    49    1
@<TRIPOS>SUBSTRUCTURE
     1 <0>         1 TEMP              0 ****  ****    0 ROOT

