
##########                                Name:          WOW_1_3KBA
##########                    Molecular_Weight:             403.932
##########                DOCK_Rotatable_Bonds:                   5
##########                       Formal_Charge:        -0.000299942
##########                     HBond_Acceptors:                   7
##########                        HBond_Donors:                   0
##########                         Heavy_Atoms:                  27
##########                            HA_RMSDs:               0.479
##########                            HA_RMSDh:               0.479
##########                            HA_RMSDm:               0.479
##########                          Grid_Score:          -64.075752
##########                     Grid_vdw_energy:          -64.516388
##########                      Grid_es_energy:            0.440639
##########           Internal_energy_repulsive:           32.863472

@<TRIPOS>MOLECULE
WOW_1_3KBA
 49 51 1 0 0
SMALL
USER_CHARGES


@<TRIPOS>ATOM
      1 C1          0.2124   -8.4697   22.5960 C.3     1  <0>        -0.0394
      2 C2         -2.3008   -6.3442   20.4414 C.3     1  <0>         0.0734
      3 C3         -2.0679  -11.2057   21.3871 C.ar    1  <0>        -0.0615
      4 C4         -3.1573  -11.0701   22.2428 C.ar    1  <0>        -0.0614
      5 C5         -0.9877  -10.3378   21.4919 C.ar    1  <0>        -0.0585
      6 C6         -3.1312  -10.1179   23.2572 C.ar    1  <0>        -0.0568
      7 C7         -4.1829   -8.0646   27.4684 C.ar    1  <0>        -0.0393
      8 C8         -4.3229   -8.6584   28.7184 C.ar    1  <0>        -0.0412
      9 C9         -2.7696   -9.8769   26.7397 C.ar    1  <0>        -0.0210
     10 C10        -3.6833   -5.5857   25.0864 C.3     1  <0>        -0.0157
     11 C11        -3.2722   -5.0807   23.7038 C.3     1  <0>         0.0310
     12 C12        -4.6100   -7.0100   23.4550 C.3     1  <0>         0.0478
     13 C13        -2.0614   -8.2291   24.4570 C.3     1  <0>         0.0378
     14 C14        -3.8517  -10.4860   30.3196 C.1     1  <0>         0.1006
     15 C15        -0.9665   -9.3682   22.4953 C.ar    1  <0>        -0.0458
     16 C16        -3.4074   -8.6687   26.4785 C.ar    1  <0>         0.0317
     17 C17        -2.0561   -9.2412   23.3653 C.ar    1  <0>        -0.0273
     18 C18        -3.6963   -9.8704   28.9773 C.ar    1  <0>         0.0701
     19 C19        -2.9461  -10.4930   27.9748 C.ar    1  <0>         0.0600
     20 C20        -4.1491   -6.9879   24.8610 C.3     1  <0>         0.0423
     21 N1         -3.9813  -10.9624   31.3373 N.1     1  <0>        -0.1908
     22 N2         -3.7652   -6.0517   22.7432 N.pl3   1  <0>        -0.2369
     23 N3         -3.2520   -8.0358   25.2174 N.pl3   1  <0>        -0.3209
     24 O1         -2.9761   -4.0606   21.5156 O.2     1  <0>        -0.1556
     25 O2         -4.6585   -5.3335   20.5646 O.2     1  <0>        -0.1556
     26 S1         -3.4603   -5.3784   21.3097 S.o2    1  <0>         0.0386
     27 Cl1        -2.0683  -11.9344   28.2822 Cl      1  <0>        -0.0822
     28 H1          0.0498   -7.5791   21.9713 H       1  <0>         0.0278
     29 H2          0.3507   -8.1625   23.6432 H       1  <0>         0.0278
     30 H3          1.1100   -9.0023   22.2484 H       1  <0>         0.0278
     31 H4         -2.0957   -5.8818   19.4647 H       1  <0>         0.0482
     32 H5         -1.3678   -6.4057   21.0209 H       1  <0>         0.0482
     33 H6         -2.7061   -7.3555   20.2902 H       1  <0>         0.0482
     34 H7         -2.0622  -11.9864   20.6409 H       1  <0>         0.0618
     35 H8         -4.0229  -11.7041   22.1194 H       1  <0>         0.0618
     36 H9         -0.1646  -10.4137   20.7968 H       1  <0>         0.0620
     37 H10        -3.9472  -10.0592   23.9623 H       1  <0>         0.0621
     38 H11        -4.6788   -7.1276   27.2624 H       1  <0>         0.0636
     39 H12        -4.9157   -8.1794   29.4836 H       1  <0>         0.0631
     40 H13        -2.1417  -10.3336   25.9889 H       1  <0>         0.0651
     41 H14        -2.8337   -5.5596   25.7847 H       1  <0>         0.0299
     42 H15        -4.4875   -4.9661   25.5098 H       1  <0>         0.0299
     43 H16        -3.7122   -4.0914   23.5100 H       1  <0>         0.0478
     44 H17        -2.1777   -4.9952   23.6361 H       1  <0>         0.0478
     45 H18        -4.5022   -8.0172   23.0262 H       1  <0>         0.0496
     46 H19        -5.6689   -6.7196   23.3882 H       1  <0>         0.0496
     47 H20        -1.2841   -8.5390   25.1710 H       1  <0>         0.0513
     48 H21        -1.8345   -7.2620   23.9845 H       1  <0>         0.0513
     49 H22        -4.9580   -7.2289   25.5665 H       1  <0>         0.0516
@<TRIPOS>BOND
     1     1    15    1
     2     2    26    1
     3     3     4   ar
     4     3     5   ar
     5     4     6   ar
     6     5    15   ar
     7     6    17   ar
     8     7     8   ar
     9     7    16   ar
    10     8    18   ar
    11     9    16   ar
    12     9    19   ar
    13    10    11    1
    14    10    20    1
    15    11    22    1
    16    12    20    1
    17    12    22    1
    18    13    17    1
    19    13    23    1
    20    14    18    1
    21    14    21    3
    22    15    17   ar
    23    16    23    1
    24    18    19   ar
    25    19    27    1
    26    20    23    1
    27    22    26    1
    28    24    26    2
    29    25    26    2
    30     1    28    1
    31     1    29    1
    32     1    30    1
    33     2    31    1
    34     2    32    1
    35     2    33    1
    36     3    34    1
    37     4    35    1
    38     5    36    1
    39     6    37    1
    40     7    38    1
    41     8    39    1
    42     9    40    1
    43    10    41    1
    44    10    42    1
    45    11    43    1
    46    11    44    1
    47    12    45    1
    48    12    46    1
    49    13    47    1
    50    13    48    1
    51    20    49    1
@<TRIPOS>SUBSTRUCTURE
     1 <0>         1 TEMP              0 ****  ****    0 ROOT

