
##########                                Name:        KBT_561_3LAN
##########                    Molecular_Weight:             353.421
##########                DOCK_Rotatable_Bonds:                   6
##########                       Formal_Charge:        -0.000299692
##########                     HBond_Acceptors:                   6
##########                        HBond_Donors:                   1
##########                         Heavy_Atoms:                  26
##########                            HA_RMSDs:               0.291
##########                            HA_RMSDh:               0.291
##########                            HA_RMSDm:               0.291
##########                          Grid_Score:          -37.479240
##########                     Grid_vdw_energy:          -35.983795
##########                      Grid_es_energy:           -1.495446
##########           Internal_energy_repulsive:           19.754974

@<TRIPOS>MOLECULE
KBT_561_3LAN
 49 50 1 0 0
SMALL
USER_CHARGES


@<TRIPOS>ATOM
      1 C1          5.7127    8.0399   17.2601 C.3     1  <0>        -0.0652
      2 C2         10.3862   16.0061   19.8996 C.3     1  <0>        -0.0397
      3 C3         12.6064   13.9799   15.9340 C.3     1  <0>        -0.0584
      4 C4         12.7871   11.4781   15.2837 C.3     1  <0>        -0.0584
      5 C5         10.1433   13.8200   21.2467 C.ar    1  <0>        -0.0414
      6 C6          9.8992   13.7515   18.7968 C.ar    1  <0>        -0.0479
      7 C7          9.6816   11.6526   20.0983 C.ar    1  <0>        -0.0335
      8 C8          6.0752    9.5235   17.4689 C.3     1  <0>        -0.0545
      9 C9          6.6794   10.0890   16.1721 C.3     1  <0>        -0.0370
     10 C10         6.8046   11.6270   16.3061 C.3     1  <0>         0.0214
     11 C11         9.8864   11.7355   22.5366 C.1     1  <0>         0.0992
     12 C12        10.1429   14.4969   19.9877 C.ar    1  <0>        -0.0486
     13 C13         9.9114   12.4009   21.2916 C.ar    1  <0>         0.0527
     14 C14         9.6713   12.3224   18.8392 C.ar    1  <0>         0.0250
     15 C15        10.4936   12.5752   15.4918 C.2     1  <0>         0.0424
     16 C16         9.3613   12.0952   16.1759 C.2     1  <0>         0.0935
     17 C17        10.1840   13.1298   14.0916 C.2     1  <0>         0.2496
     18 C18         7.8656   12.6391   14.3571 C.2     1  <0>         0.3131
     19 C19        11.9341   12.5677   16.0413 C.3     1  <0>        -0.0147
     20 C20         9.3927   11.5077   17.5828 C.2     1  <0>         0.2078
     21 N1          9.8314   11.1965   23.5497 N.1     1  <0>        -0.1909
     22 N2          8.9105   13.1184   13.6504 N.am    1  <0>        -0.2359
     23 N3          8.0567   12.1399   15.5907 N.am    1  <0>        -0.2513
     24 O1         11.0467   13.5899   13.3608 O.2     1  <0>        -0.2700
     25 O2          6.7554   12.6919   13.8260 O.2     1  <0>        -0.2518
     26 O3          9.1477   10.3137   17.6746 O.2     1  <0>        -0.2853
     27 H1          5.2804    7.6336   18.1864 H       1  <0>         0.0230
     28 H2          4.9795    7.9530   16.4447 H       1  <0>         0.0230
     29 H3          6.6194    7.4741   16.9998 H       1  <0>         0.0230
     30 H4         11.4628   16.1983   19.7817 H       1  <0>         0.0278
     31 H5          9.8439   16.4148   19.0341 H       1  <0>         0.0278
     32 H6         10.0263   16.4897   20.8197 H       1  <0>         0.0278
     33 H7         11.9934   14.7200   16.4692 H       1  <0>         0.0235
     34 H8         13.6104   13.9429   16.3819 H       1  <0>         0.0235
     35 H9         12.6874   14.2678   14.8754 H       1  <0>         0.0235
     36 H10        12.2950   10.4985   15.3739 H       1  <0>         0.0235
     37 H11        12.8691   11.7506   14.2211 H       1  <0>         0.0235
     38 H12        13.7922   11.4257   15.7276 H       1  <0>         0.0235
     39 H13        10.3167   14.3710   22.1593 H       1  <0>         0.0633
     40 H14         9.8843   14.2625   17.8455 H       1  <0>         0.0627
     41 H15         9.5167   10.5865   20.1483 H       1  <0>         0.0637
     42 H16         5.1689   10.0898   17.7292 H       1  <0>         0.0263
     43 H17         6.8085    9.6111   18.2842 H       1  <0>         0.0263
     44 H18         7.6739    9.6498   16.0049 H       1  <0>         0.0280
     45 H19         6.0262    9.8435   15.3217 H       1  <0>         0.0280
     46 H20         5.9180   12.0983   15.8569 H       1  <0>         0.0469
     47 H21         6.8697   11.8889   17.3726 H       1  <0>         0.0469
     48 H22        11.8926   12.3136   17.1107 H       1  <0>         0.0346
     49 H23         8.7280   13.4894   12.7399 H       1  <0>         0.1594
@<TRIPOS>BOND
     1     1     8    1
     2     2    12    1
     3     3    19    1
     4     4    19    1
     5     5    12   ar
     6     5    13   ar
     7     6    12   ar
     8     6    14   ar
     9     7    13   ar
    10     7    14   ar
    11     8     9    1
    12     9    10    1
    13    10    23    1
    14    11    13    1
    15    11    21    3
    16    14    20    1
    17    15    16    2
    18    15    17    1
    19    15    19    1
    20    16    20    1
    21    16    23    1
    22    17    22   am
    23    17    24    2
    24    18    22   am
    25    18    23   am
    26    18    25    2
    27    20    26    2
    28     1    27    1
    29     1    28    1
    30     1    29    1
    31     2    30    1
    32     2    31    1
    33     2    32    1
    34     3    33    1
    35     3    34    1
    36     3    35    1
    37     4    36    1
    38     4    37    1
    39     4    38    1
    40     5    39    1
    41     6    40    1
    42     7    41    1
    43     8    42    1
    44     8    43    1
    45     9    44    1
    46     9    45    1
    47    10    46    1
    48    10    47    1
    49    19    48    1
    50    22    49    1
@<TRIPOS>SUBSTRUCTURE
     1 <0>         1 TEMP              0 ****  ****    0 ROOT

