
##########                                Name:        KBT_561_3LAN
##########                    Molecular_Weight:             353.421
##########                DOCK_Rotatable_Bonds:                   6
##########                       Formal_Charge:        -0.000299692
##########                     HBond_Acceptors:                   6
##########                        HBond_Donors:                   1
##########                         Heavy_Atoms:                  26
##########                            HA_RMSDs:               0.499
##########                            HA_RMSDh:               0.499
##########                            HA_RMSDm:               0.499
##########                          Grid_Score:          -40.122208
##########                     Grid_vdw_energy:          -38.828609
##########                      Grid_es_energy:           -1.293599
##########           Internal_energy_repulsive:           19.566994

@<TRIPOS>MOLECULE
KBT_561_3LAN
 49 50 1 0 0
SMALL
USER_CHARGES


@<TRIPOS>ATOM
      1 C1          5.4545    8.2433   17.1078 C.3     1  <0>        -0.0652
      2 C2         10.2470   15.9231   19.9835 C.3     1  <0>        -0.0397
      3 C3         12.9500   13.7703   14.9978 C.3     1  <0>        -0.0584
      4 C4         12.8265   11.1854   14.8656 C.3     1  <0>        -0.0584
      5 C5          9.9541   13.6814   21.2252 C.ar    1  <0>        -0.0414
      6 C6         10.0926   13.6802   18.7662 C.ar    1  <0>        -0.0479
      7 C7          9.8255   11.5287   19.9687 C.ar    1  <0>        -0.0335
      8 C8          5.9000    9.6739   17.4701 C.3     1  <0>        -0.0545
      9 C9          6.9888   10.1343   16.4859 C.3     1  <0>        -0.0370
     10 C10         7.1724   11.6664   16.6217 C.3     1  <0>         0.0214
     11 C11         9.6489   11.5421   22.4106 C.1     1  <0>         0.0992
     12 C12        10.0989   14.3991   19.9976 C.ar    1  <0>        -0.0486
     13 C13         9.8175   12.2495   21.2004 C.ar    1  <0>         0.0527
     14 C14         9.9610   12.2387   18.7393 C.ar    1  <0>         0.0250
     15 C15        10.6954   12.5440   15.2113 C.2     1  <0>         0.0424
     16 C16         9.6823   12.0746   16.0679 C.2     1  <0>         0.0935
     17 C17        10.1687   13.1419   13.8962 C.2     1  <0>         0.2496
     18 C18         7.9158   12.7017   14.5423 C.2     1  <0>         0.3131
     19 C19        12.2074   12.4869   15.5071 C.3     1  <0>        -0.0147
     20 C20         9.9351   11.4506   17.4362 C.2     1  <0>         0.2078
     21 N1          9.4774   10.9667   23.3901 N.1     1  <0>        -0.1909
     22 N2          8.8390   13.1731   13.6782 N.am    1  <0>        -0.2359
     23 N3          8.2992   12.1664   15.7145 N.am    1  <0>        -0.2513
     24 O1         10.9077   13.5992   13.0391 O.2     1  <0>        -0.2700
     25 O2          6.7336   12.7955   14.2092 O.2     1  <0>        -0.2518
     26 O3         10.0949   10.2389   17.4554 O.2     1  <0>        -0.2853
     27 H1          4.6758    7.9122   17.8106 H       1  <0>         0.0230
     28 H2          5.0525    8.2328   16.0840 H       1  <0>         0.0230
     29 H3          6.3174    7.5639   17.1701 H       1  <0>         0.0230
     30 H4         11.3130   16.1890   20.0382 H       1  <0>         0.0278
     31 H5          9.8163   16.3247   19.0544 H       1  <0>         0.0278
     32 H6          9.7180   16.3507   20.8479 H       1  <0>         0.0278
     33 H7         12.5002   14.6620   15.4589 H       1  <0>         0.0235
     34 H8         14.0134   13.7121   15.2732 H       1  <0>         0.0235
     35 H9         12.8576   13.8373   13.9037 H       1  <0>         0.0235
     36 H10        12.2890   10.3010   15.2383 H       1  <0>         0.0235
     37 H11        12.7332   11.2365   13.7707 H       1  <0>         0.0235
     38 H12        13.8890   11.1113   15.1402 H       1  <0>         0.0235
     39 H13         9.9471   14.2113   22.1663 H       1  <0>         0.0633
     40 H14        10.1877   14.2211   17.8362 H       1  <0>         0.0627
     41 H15         9.7295   10.4530   19.9676 H       1  <0>         0.0637
     42 H16         5.0375   10.3538   17.4080 H       1  <0>         0.0263
     43 H17         6.3020    9.6851   18.4939 H       1  <0>         0.0263
     44 H18         7.9363    9.6260   16.7178 H       1  <0>         0.0280
     45 H19         6.6864    9.8875   15.4574 H       1  <0>         0.0280
     46 H20         6.2348   12.1654   16.3355 H       1  <0>         0.0469
     47 H21         7.4217   11.9054   17.6661 H       1  <0>         0.0469
     48 H22        12.3429   12.4507   16.5981 H       1  <0>         0.0346
     49 H23         8.5153   13.5717   12.8201 H       1  <0>         0.1594
@<TRIPOS>BOND
     1     1     8    1
     2     2    12    1
     3     3    19    1
     4     4    19    1
     5     5    12   ar
     6     5    13   ar
     7     6    12   ar
     8     6    14   ar
     9     7    13   ar
    10     7    14   ar
    11     8     9    1
    12     9    10    1
    13    10    23    1
    14    11    13    1
    15    11    21    3
    16    14    20    1
    17    15    16    2
    18    15    17    1
    19    15    19    1
    20    16    20    1
    21    16    23    1
    22    17    22   am
    23    17    24    2
    24    18    22   am
    25    18    23   am
    26    18    25    2
    27    20    26    2
    28     1    27    1
    29     1    28    1
    30     1    29    1
    31     2    30    1
    32     2    31    1
    33     2    32    1
    34     3    33    1
    35     3    34    1
    36     3    35    1
    37     4    36    1
    38     4    37    1
    39     4    38    1
    40     5    39    1
    41     6    40    1
    42     7    41    1
    43     8    42    1
    44     8    43    1
    45     9    44    1
    46     9    45    1
    47    10    46    1
    48    10    47    1
    49    19    48    1
    50    22    49    1
@<TRIPOS>SUBSTRUCTURE
     1 <0>         1 TEMP              0 ****  ****    0 ROOT

