
##########                                Name:        KBT_561_3LAN
##########                    Molecular_Weight:             353.421
##########                DOCK_Rotatable_Bonds:                   6
##########                       Formal_Charge:        -0.000299692
##########                     HBond_Acceptors:                   6
##########                        HBond_Donors:                   1
##########                         Heavy_Atoms:                  26
##########                            HA_RMSDs:               0.272
##########                            HA_RMSDh:               0.272
##########                            HA_RMSDm:               0.272
##########                          Grid_Score:          -42.276199
##########                     Grid_vdw_energy:          -40.917965
##########                      Grid_es_energy:           -1.358234
##########           Internal_energy_repulsive:           14.249122

@<TRIPOS>MOLECULE
KBT_561_3LAN
 49 50 1 0 0
SMALL
USER_CHARGES


@<TRIPOS>ATOM
      1 C1          5.6767    8.3228   17.1328 C.3     1  <0>        -0.0652
      2 C2         10.6135   16.0177   19.9951 C.3     1  <0>        -0.0397
      3 C3         12.7765   13.9174   16.0730 C.3     1  <0>        -0.0584
      4 C4         12.9215   11.7084   14.7263 C.3     1  <0>        -0.0584
      5 C5         10.2292   13.8204   21.2900 C.ar    1  <0>        -0.0414
      6 C6         10.1396   13.7924   18.8289 C.ar    1  <0>        -0.0479
      7 C7          9.7857   11.6823   20.0812 C.ar    1  <0>        -0.0335
      8 C8          5.9310    9.8187   17.4042 C.3     1  <0>        -0.0545
      9 C9          6.6014   10.4542   16.1741 C.3     1  <0>        -0.0370
     10 C10         6.9807   11.9180   16.5096 C.3     1  <0>         0.0214
     11 C11         9.8371   11.7258   22.5286 C.1     1  <0>         0.0992
     12 C12        10.3263   14.5144   20.0443 C.ar    1  <0>        -0.0486
     13 C13         9.9584   12.4075   21.2982 C.ar    1  <0>         0.0527
     14 C14         9.8727   12.3695   18.8346 C.ar    1  <0>         0.0250
     15 C15        10.6443   12.6390   15.4009 C.2     1  <0>         0.0424
     16 C16         9.5435   12.2148   16.1683 C.2     1  <0>         0.0935
     17 C17        10.2559   13.2597   14.0488 C.2     1  <0>         0.2496
     18 C18         7.9398   12.9197   14.5033 C.2     1  <0>         0.3131
     19 C19        12.1224   12.5150   15.8214 C.3     1  <0>        -0.0147
     20 C20         9.6537   11.5800   17.5506 C.2     1  <0>         0.2078
     21 N1          9.7039   11.1745   23.5277 N.1     1  <0>        -0.1909
     22 N2          8.9517   13.3498   13.7210 N.am    1  <0>        -0.2359
     23 N3          8.2001   12.3678   15.7014 N.am    1  <0>        -0.2513
     24 O1         11.0833   13.6840   13.2580 O.2     1  <0>        -0.2700
     25 O2          6.7948   13.0657   14.0733 O.2     1  <0>        -0.2518
     26 O3          9.5259   10.3653   17.5983 O.2     1  <0>        -0.2853
     27 H1          5.1972    7.8666   18.0114 H       1  <0>         0.0230
     28 H2          5.0174    8.2158   16.2588 H       1  <0>         0.0230
     29 H3          6.6338    7.8184   16.9343 H       1  <0>         0.0230
     30 H4         11.7001   16.1826   19.9485 H       1  <0>         0.0278
     31 H5         10.1381   16.4527   19.1036 H       1  <0>         0.0278
     32 H6         10.2085   16.4979   20.8980 H       1  <0>         0.0278
     33 H7         12.2017   14.4586   16.8390 H       1  <0>         0.0235
     34 H8         13.8119   13.7821   16.4191 H       1  <0>         0.0235
     35 H9         12.7752   14.4956   15.1372 H       1  <0>         0.0235
     36 H10        12.4432   10.7304   14.5687 H       1  <0>         0.0235
     37 H11        12.9209   12.2730   13.7822 H       1  <0>         0.0235
     38 H12        13.9576   11.5595   15.0641 H       1  <0>         0.0235
     39 H13        10.3583   14.3538   22.2202 H       1  <0>         0.0633
     40 H14        10.1985   14.3168   17.8865 H       1  <0>         0.0627
     41 H15         9.5905   10.6204   20.1041 H       1  <0>         0.0637
     42 H16         4.9742   10.3238   17.6028 H       1  <0>         0.0263
     43 H17         6.5902    9.9265   18.2782 H       1  <0>         0.0263
     44 H18         7.5073    9.8878   15.9124 H       1  <0>         0.0280
     45 H19         5.9045   10.4381   15.3231 H       1  <0>         0.0280
     46 H20         6.1301   12.5721   16.2673 H       1  <0>         0.0469
     47 H21         7.2163   11.9895   17.5817 H       1  <0>         0.0469
     48 H22        12.1636   11.9672   16.7744 H       1  <0>         0.0346
     49 H23         8.7187   13.7625   12.8404 H       1  <0>         0.1594
@<TRIPOS>BOND
     1     1     8    1
     2     2    12    1
     3     3    19    1
     4     4    19    1
     5     5    12   ar
     6     5    13   ar
     7     6    12   ar
     8     6    14   ar
     9     7    13   ar
    10     7    14   ar
    11     8     9    1
    12     9    10    1
    13    10    23    1
    14    11    13    1
    15    11    21    3
    16    14    20    1
    17    15    16    2
    18    15    17    1
    19    15    19    1
    20    16    20    1
    21    16    23    1
    22    17    22   am
    23    17    24    2
    24    18    22   am
    25    18    23   am
    26    18    25    2
    27    20    26    2
    28     1    27    1
    29     1    28    1
    30     1    29    1
    31     2    30    1
    32     2    31    1
    33     2    32    1
    34     3    33    1
    35     3    34    1
    36     3    35    1
    37     4    36    1
    38     4    37    1
    39     4    38    1
    40     5    39    1
    41     6    40    1
    42     7    41    1
    43     8    42    1
    44     8    43    1
    45     9    44    1
    46     9    45    1
    47    10    46    1
    48    10    47    1
    49    19    48    1
    50    22    49    1
@<TRIPOS>SUBSTRUCTURE
     1 <0>         1 TEMP              0 ****  ****    0 ROOT

