
##########                                Name:        KBT_561_3LAN
##########                    Molecular_Weight:             353.421
##########                DOCK_Rotatable_Bonds:                   6
##########                       Formal_Charge:        -0.000299692
##########                     HBond_Acceptors:                   6
##########                        HBond_Donors:                   1
##########                         Heavy_Atoms:                  26
##########                            HA_RMSDs:               0.373
##########                            HA_RMSDh:               0.373
##########                            HA_RMSDm:               0.373
##########                          Grid_Score:          -44.060448
##########                     Grid_vdw_energy:          -42.889278
##########                      Grid_es_energy:           -1.171170
##########           Internal_energy_repulsive:           13.024961

@<TRIPOS>MOLECULE
KBT_561_3LAN
 49 50 1 0 0
SMALL
USER_CHARGES


@<TRIPOS>ATOM
      1 C1          5.7253    8.0814   16.8946 C.3     1  <0>        -0.0652
      2 C2         10.4286   15.9572   20.0471 C.3     1  <0>        -0.0397
      3 C3         12.9346   14.0121   15.9649 C.3     1  <0>        -0.0584
      4 C4         13.1911   11.8159   14.6137 C.3     1  <0>        -0.0584
      5 C5         10.1370   13.7303   21.3155 C.ar    1  <0>        -0.0414
      6 C6         10.2363   13.7038   18.8547 C.ar    1  <0>        -0.0479
      7 C7          9.9707   11.5666   20.0826 C.ar    1  <0>        -0.0335
      8 C8          6.1221    9.5120   17.3095 C.3     1  <0>        -0.0545
      9 C9          6.9320   10.1661   16.1769 C.3     1  <0>        -0.0370
     10 C10         7.3150   11.6058   16.6009 C.3     1  <0>         0.0214
     11 C11         9.8332   11.6053   22.5268 C.1     1  <0>         0.0992
     12 C12        10.2682   14.4347   20.0786 C.ar    1  <0>        -0.0486
     13 C13         9.9883   12.2994   21.3071 C.ar    1  <0>         0.0527
     14 C14        10.0925   12.2633   18.8442 C.ar    1  <0>         0.0250
     15 C15        10.8776   12.5828   15.3663 C.2     1  <0>         0.0424
     16 C16         9.8369   12.0836   16.1715 C.2     1  <0>         0.0935
     17 C17        10.3998   13.1699   14.0279 C.2     1  <0>         0.2496
     18 C18         8.1308   12.6669   14.5621 C.2     1  <0>         0.3131
     19 C19        12.3743   12.5658   15.7358 C.3     1  <0>        -0.0147
     20 C20        10.0394   11.4627   17.5495 C.2     1  <0>         0.2078
     21 N1          9.6726   11.0410   23.5145 N.1     1  <0>        -0.1909
     22 N2          9.0820   13.1657   13.7451 N.am    1  <0>        -0.2359
     23 N3          8.4708   12.1389   15.7509 N.am    1  <0>        -0.2513
     24 O1         11.1672   13.6496   13.2088 O.2     1  <0>        -0.2700
     25 O2          6.9643   12.7296   14.1716 O.2     1  <0>        -0.2518
     26 O3         10.1330   10.2444   17.5840 O.2     1  <0>        -0.2853
     27 H1          5.1460    7.6120   17.7033 H       1  <0>         0.0230
     28 H2          5.1137    8.1210   15.9811 H       1  <0>         0.0230
     29 H3          6.6329    7.4903   16.7030 H       1  <0>         0.0230
     30 H4         11.4975   16.2146   20.0822 H       1  <0>         0.0278
     31 H5          9.9864   16.3532   19.1209 H       1  <0>         0.0278
     32 H6          9.9169   16.3977   20.9155 H       1  <0>         0.0278
     33 H7         12.3492   14.5125   16.7503 H       1  <0>         0.0235
     34 H8         13.9883   13.9520   16.2753 H       1  <0>         0.0235
     35 H9         12.8599   14.5864   15.0298 H       1  <0>         0.0235
     36 H10        12.7790   10.8059   14.4725 H       1  <0>         0.0235
     37 H11        13.1179   12.3768   13.6703 H       1  <0>         0.0235
     38 H12        14.2463   11.7423   14.9158 H       1  <0>         0.0235
     39 H13        10.1494   14.2694   22.2512 H       1  <0>         0.0633
     40 H14        10.3211   14.2347   17.9180 H       1  <0>         0.0627
     41 H15         9.8659   10.4917   20.0937 H       1  <0>         0.0637
     42 H16         5.2149   10.1037   17.5012 H       1  <0>         0.0263
     43 H17         6.7337    9.4731   18.2229 H       1  <0>         0.0263
     44 H18         7.8440    9.5807   15.9883 H       1  <0>         0.0280
     45 H19         6.3255   10.1993   15.2597 H       1  <0>         0.0280
     46 H20         6.4418   12.2616   16.4686 H       1  <0>         0.0469
     47 H21         7.6223   11.5976   17.6572 H       1  <0>         0.0469
     48 H22        12.4873   12.0246   16.6868 H       1  <0>         0.0346
     49 H23         8.7901   13.5579   12.8727 H       1  <0>         0.1594
@<TRIPOS>BOND
     1     1     8    1
     2     2    12    1
     3     3    19    1
     4     4    19    1
     5     5    12   ar
     6     5    13   ar
     7     6    12   ar
     8     6    14   ar
     9     7    13   ar
    10     7    14   ar
    11     8     9    1
    12     9    10    1
    13    10    23    1
    14    11    13    1
    15    11    21    3
    16    14    20    1
    17    15    16    2
    18    15    17    1
    19    15    19    1
    20    16    20    1
    21    16    23    1
    22    17    22   am
    23    17    24    2
    24    18    22   am
    25    18    23   am
    26    18    25    2
    27    20    26    2
    28     1    27    1
    29     1    28    1
    30     1    29    1
    31     2    30    1
    32     2    31    1
    33     2    32    1
    34     3    33    1
    35     3    34    1
    36     3    35    1
    37     4    36    1
    38     4    37    1
    39     4    38    1
    40     5    39    1
    41     6    40    1
    42     7    41    1
    43     8    42    1
    44     8    43    1
    45     9    44    1
    46     9    45    1
    47    10    46    1
    48    10    47    1
    49    19    48    1
    50    22    49    1
@<TRIPOS>SUBSTRUCTURE
     1 <0>         1 TEMP              0 ****  ****    0 ROOT

