
##########                                Name:        KBT_561_3LAN
##########                    Molecular_Weight:             353.421
##########                DOCK_Rotatable_Bonds:                   6
##########                       Formal_Charge:        -0.000299692
##########                     HBond_Acceptors:                   6
##########                        HBond_Donors:                   1
##########                         Heavy_Atoms:                  26
##########                            HA_RMSDs:               0.351
##########                            HA_RMSDh:               0.351
##########                            HA_RMSDm:               0.351
##########                          Grid_Score:          -38.328133
##########                     Grid_vdw_energy:          -36.755489
##########                      Grid_es_energy:           -1.572643
##########           Internal_energy_repulsive:           14.050346

@<TRIPOS>MOLECULE
KBT_561_3LAN
 49 50 1 0 0
SMALL
USER_CHARGES


@<TRIPOS>ATOM
      1 C1          5.6393    8.4128   17.4366 C.3     1  <0>        -0.0652
      2 C2         10.6029   16.0657   19.8585 C.3     1  <0>        -0.0397
      3 C3         12.7804   13.7840   15.5488 C.3     1  <0>        -0.0584
      4 C4         12.6629   11.3021   14.8131 C.3     1  <0>        -0.0584
      5 C5         10.2218   13.8972   21.2022 C.ar    1  <0>        -0.0414
      6 C6         10.0917   13.8222   18.7439 C.ar    1  <0>        -0.0479
      7 C7          9.7411   11.7399   20.0428 C.ar    1  <0>        -0.0335
      8 C8          5.7821    9.9429   17.5572 C.3     1  <0>        -0.0545
      9 C9          6.4878   10.4902   16.3047 C.3     1  <0>        -0.0370
     10 C10         6.8714   11.9705   16.5515 C.3     1  <0>         0.0214
     11 C11         9.8329   11.8305   22.4877 C.1     1  <0>         0.0992
     12 C12        10.3042   14.5661   19.9417 C.ar    1  <0>        -0.0486
     13 C13         9.9396   12.4871   21.2424 C.ar    1  <0>         0.0527
     14 C14         9.8133   12.4020   18.7817 C.ar    1  <0>         0.0250
     15 C15        10.5146   12.5818   15.3169 C.2     1  <0>         0.0424
     16 C16         9.4286   12.1993   16.1262 C.2     1  <0>         0.0935
     17 C17        10.0991   13.1847   13.9649 C.2     1  <0>         0.2496
     18 C18         7.7909   12.9090   14.4967 C.2     1  <0>         0.3131
     19 C19        12.0017   12.4310   15.6946 C.3     1  <0>        -0.0147
     20 C20         9.5668   11.5896   17.5172 C.2     1  <0>         0.2078
     21 N1          9.7115   11.2999   23.4995 N.1     1  <0>        -0.1909
     22 N2          8.7877   13.2994   13.6752 N.am    1  <0>        -0.2359
     23 N3          8.0753   12.3750   15.6974 N.am    1  <0>        -0.2513
     24 O1         10.9111   13.5734   13.1406 O.2     1  <0>        -0.2700
     25 O2          6.6368   13.0738   14.0989 O.2     1  <0>        -0.2518
     26 O3          9.4388   10.3762   17.5896 O.2     1  <0>        -0.2853
     27 H1          5.1348    8.0195   18.3315 H       1  <0>         0.0230
     28 H2          5.0444    8.1694   16.5439 H       1  <0>         0.0230
     29 H3          6.6366    7.9574   17.3481 H       1  <0>         0.0230
     30 H4         11.6898   16.2203   19.7910 H       1  <0>         0.0278
     31 H5         10.1165   16.4873   18.9664 H       1  <0>         0.0278
     32 H6         10.2166   16.5667   20.7583 H       1  <0>         0.0278
     33 H7         12.3003   14.5529   16.1719 H       1  <0>         0.0235
     34 H8         13.8215   13.6447   15.8756 H       1  <0>         0.0235
     35 H9         12.7659   14.1035   14.4963 H       1  <0>         0.0235
     36 H10        12.0991   10.3652   14.9330 H       1  <0>         0.0235
     37 H11        12.6477   11.6064   13.7562 H       1  <0>         0.0235
     38 H12        13.7032   11.1476   15.1355 H       1  <0>         0.0235
     39 H13        10.3705   14.4475   22.1196 H       1  <0>         0.0633
     40 H14        10.1394   14.3276   17.7906 H       1  <0>         0.0627
     41 H15         9.5376   10.6803   20.0897 H       1  <0>         0.0637
     42 H16         4.7851   10.3989   17.6457 H       1  <0>         0.0263
     43 H17         6.3769   10.1869   18.4498 H       1  <0>         0.0263
     44 H18         7.3949    9.9013   16.1039 H       1  <0>         0.0280
     45 H19         5.8117   10.4224   15.4395 H       1  <0>         0.0280
     46 H20         6.0157   12.6100   16.2890 H       1  <0>         0.0469
     47 H21         7.1265   12.1014   17.6136 H       1  <0>         0.0469
     48 H22        12.0594   12.1414   16.7542 H       1  <0>         0.0346
     49 H23         8.5372   13.6999   12.7938 H       1  <0>         0.1594
@<TRIPOS>BOND
     1     1     8    1
     2     2    12    1
     3     3    19    1
     4     4    19    1
     5     5    12   ar
     6     5    13   ar
     7     6    12   ar
     8     6    14   ar
     9     7    13   ar
    10     7    14   ar
    11     8     9    1
    12     9    10    1
    13    10    23    1
    14    11    13    1
    15    11    21    3
    16    14    20    1
    17    15    16    2
    18    15    17    1
    19    15    19    1
    20    16    20    1
    21    16    23    1
    22    17    22   am
    23    17    24    2
    24    18    22   am
    25    18    23   am
    26    18    25    2
    27    20    26    2
    28     1    27    1
    29     1    28    1
    30     1    29    1
    31     2    30    1
    32     2    31    1
    33     2    32    1
    34     3    33    1
    35     3    34    1
    36     3    35    1
    37     4    36    1
    38     4    37    1
    39     4    38    1
    40     5    39    1
    41     6    40    1
    42     7    41    1
    43     8    42    1
    44     8    43    1
    45     9    44    1
    46     9    45    1
    47    10    46    1
    48    10    47    1
    49    19    48    1
    50    22    49    1
@<TRIPOS>SUBSTRUCTURE
     1 <0>         1 TEMP              0 ****  ****    0 ROOT

