
##########                                Name:        KBT_561_3LAN
##########                    Molecular_Weight:             353.421
##########                DOCK_Rotatable_Bonds:                   6
##########                       Formal_Charge:        -0.000299692
##########                     HBond_Acceptors:                   6
##########                        HBond_Donors:                   1
##########                         Heavy_Atoms:                  26
##########                            HA_RMSDs:               0.342
##########                            HA_RMSDh:               0.342
##########                            HA_RMSDm:               0.342
##########                          Grid_Score:          -38.050510
##########                     Grid_vdw_energy:          -36.609417
##########                      Grid_es_energy:           -1.441095
##########           Internal_energy_repulsive:           14.470663

@<TRIPOS>MOLECULE
KBT_561_3LAN
 49 50 1 0 0
SMALL
USER_CHARGES


@<TRIPOS>ATOM
      1 C1          5.6400    8.0250   16.9736 C.3     1  <0>        -0.0652
      2 C2         10.4203   15.8695   20.0343 C.3     1  <0>        -0.0397
      3 C3         12.7090   13.8493   16.1700 C.3     1  <0>        -0.0584
      4 C4         12.9749   11.7057   14.7386 C.3     1  <0>        -0.0584
      5 C5         10.1139   13.6577   21.3254 C.ar    1  <0>        -0.0414
      6 C6         10.0628   13.6251   18.8632 C.ar    1  <0>        -0.0479
      7 C7          9.7836   11.5018   20.1120 C.ar    1  <0>        -0.0335
      8 C8          5.9421    9.4951   17.3252 C.3     1  <0>        -0.0545
      9 C9          6.6459   10.1705   16.1358 C.3     1  <0>        -0.0370
     10 C10         7.0137   11.6228   16.5292 C.3     1  <0>         0.0214
     11 C11         9.7960   11.5482   22.5599 C.1     1  <0>         0.0992
     12 C12        10.1991   14.3550   20.0805 C.ar    1  <0>        -0.0486
     13 C13         9.9057   12.2342   21.3307 C.ar    1  <0>         0.0527
     14 C14         9.8590   12.1918   18.8662 C.ar    1  <0>         0.0250
     15 C15        10.6492   12.4903   15.4331 C.2     1  <0>         0.0424
     16 C16         9.5637   12.0225   16.1969 C.2     1  <0>         0.0935
     17 C17        10.2410   13.0945   14.0794 C.2     1  <0>         0.2496
     18 C18         7.9388   12.6616   14.5258 C.2     1  <0>         0.3131
     19 C19        12.1296   12.4261   15.8589 C.3     1  <0>        -0.0147
     20 C20         9.6944   11.3931   17.5798 C.2     1  <0>         0.2078
     21 N1          9.6723   10.9918   23.5574 N.1     1  <0>        -0.1909
     22 N2          8.9353   13.1319   13.7469 N.am    1  <0>        -0.2359
     23 N3          8.2169   12.1210   15.7251 N.am    1  <0>        -0.2513
     24 O1         11.0533   13.5514   13.2913 O.2     1  <0>        -0.2700
     25 O2          6.7904   12.7613   14.0917 O.2     1  <0>        -0.2518
     26 O3          9.6311   10.1732   17.6257 O.2     1  <0>        -0.2853
     27 H1          5.1366    7.5402   17.8231 H       1  <0>         0.0230
     28 H2          4.9864    7.9863   16.0897 H       1  <0>         0.0230
     29 H3          6.5816    7.4991   16.7568 H       1  <0>         0.0230
     30 H4         11.4991   16.0822   20.0039 H       1  <0>         0.0278
     31 H5          9.9396   16.2828   19.1353 H       1  <0>         0.0278
     32 H6          9.9808   16.3316   20.9305 H       1  <0>         0.0278
     33 H7         12.1031   14.3293   16.9526 H       1  <0>         0.0235
     34 H8         13.7482   13.7539   16.5179 H       1  <0>         0.0235
     35 H9         12.6825   14.4632   15.2577 H       1  <0>         0.0235
     36 H10        12.5486   10.7114   14.5393 H       1  <0>         0.0235
     37 H11        12.9499   12.3065   13.8175 H       1  <0>         0.0235
     38 H12        14.0156   11.5971   15.0777 H       1  <0>         0.0235
     39 H13        10.2053   14.1966   22.2569 H       1  <0>         0.0633
     40 H14        10.1127   14.1513   17.9213 H       1  <0>         0.0627
     41 H15         9.6351   10.4323   20.1330 H       1  <0>         0.0637
     42 H16         5.0009   10.0216   17.5421 H       1  <0>         0.0263
     43 H17         6.5957    9.5344   18.2091 H       1  <0>         0.0263
     44 H18         7.5596    9.6132   15.8814 H       1  <0>         0.0280
     45 H19         5.9732   10.1819   15.2655 H       1  <0>         0.0280
     46 H20         6.1527   12.2768   16.3268 H       1  <0>         0.0469
     47 H21         7.2632   11.6507   17.6003 H       1  <0>         0.0469
     48 H22        12.1943   11.8438   16.7899 H       1  <0>         0.0346
     49 H23         8.6890   13.5345   12.8653 H       1  <0>         0.1594
@<TRIPOS>BOND
     1     1     8    1
     2     2    12    1
     3     3    19    1
     4     4    19    1
     5     5    12   ar
     6     5    13   ar
     7     6    12   ar
     8     6    14   ar
     9     7    13   ar
    10     7    14   ar
    11     8     9    1
    12     9    10    1
    13    10    23    1
    14    11    13    1
    15    11    21    3
    16    14    20    1
    17    15    16    2
    18    15    17    1
    19    15    19    1
    20    16    20    1
    21    16    23    1
    22    17    22   am
    23    17    24    2
    24    18    22   am
    25    18    23   am
    26    18    25    2
    27    20    26    2
    28     1    27    1
    29     1    28    1
    30     1    29    1
    31     2    30    1
    32     2    31    1
    33     2    32    1
    34     3    33    1
    35     3    34    1
    36     3    35    1
    37     4    36    1
    38     4    37    1
    39     4    38    1
    40     5    39    1
    41     6    40    1
    42     7    41    1
    43     8    42    1
    44     8    43    1
    45     9    44    1
    46     9    45    1
    47    10    46    1
    48    10    47    1
    49    19    48    1
    50    22    49    1
@<TRIPOS>SUBSTRUCTURE
     1 <0>         1 TEMP              0 ****  ****    0 ROOT

