
##########                                Name:        KBT_561_3LAN
##########                    Molecular_Weight:             353.421
##########                DOCK_Rotatable_Bonds:                   6
##########                       Formal_Charge:        -0.000299692
##########                     HBond_Acceptors:                   6
##########                        HBond_Donors:                   1
##########                         Heavy_Atoms:                  26
##########                            HA_RMSDs:              14.116
##########                            HA_RMSDh:              13.423
##########                            HA_RMSDm:              11.855
##########                          Grid_Score:          -29.477461
##########                     Grid_vdw_energy:          -29.199657
##########                      Grid_es_energy:           -0.277803
##########           Internal_energy_repulsive:           15.046100

@<TRIPOS>MOLECULE
KBT_561_3LAN
 49 50 1 0 0
SMALL
USER_CHARGES


@<TRIPOS>ATOM
      1 C1         14.5741   13.3716   32.0468 C.3     1  <0>        -0.0652
      2 C2         10.2470    9.3734   25.7289 C.3     1  <0>        -0.0397
      3 C3          6.7063    9.4314   30.3829 C.3     1  <0>        -0.0584
      4 C4          6.8655   10.2929   32.8215 C.3     1  <0>        -0.0584
      5 C5         12.0321    8.3236   27.2665 C.ar    1  <0>        -0.0414
      6 C6         10.4772    9.9905   28.1993 C.ar    1  <0>        -0.0479
      7 C7         12.1868    8.9657   29.6734 C.ar    1  <0>        -0.0335
      8 C8         13.6847   13.0742   30.8233 C.3     1  <0>        -0.0545
      9 C9         12.2515   13.5569   31.1045 C.3     1  <0>        -0.0370
     10 C10        11.3919   13.3432   29.8338 C.3     1  <0>         0.0214
     11 C11        13.7541    7.3388   28.7293 C.1     1  <0>         0.0992
     12 C12        10.9325    9.2196   27.0895 C.ar    1  <0>        -0.0486
     13 C13        12.6518    8.2045   28.5594 C.ar    1  <0>         0.0527
     14 C14        11.0957    9.8680   29.5025 C.ar    1  <0>         0.0250
     15 C15         8.1768   11.4620   30.9721 C.2     1  <0>         0.0424
     16 C16         9.5190   11.7271   30.6421 C.2     1  <0>         0.0935
     17 C17         7.2474   12.6768   30.8150 C.2     1  <0>         0.2496
     18 C18         9.0676   14.0364   30.0903 C.2     1  <0>         0.3131
     19 C19         7.6315   10.1034   31.4556 C.3     1  <0>        -0.0147
     20 C20        10.6379   10.6924   30.6986 C.2     1  <0>         0.2078
     21 N1         14.6724    6.6615   28.8634 N.1     1  <0>        -0.1909
     22 N2          7.7654   13.8457   30.3885 N.am    1  <0>        -0.2359
     23 N3          9.9414   13.0205   30.2005 N.am    1  <0>        -0.2513
     24 O1          6.0517   12.6254   31.0544 O.2     1  <0>        -0.2700
     25 O2          9.3996   15.1608   29.7127 O.2     1  <0>        -0.2518
     26 O3         11.1985   10.5622   31.7769 O.2     1  <0>        -0.2853
     27 H1         15.5996   13.0271   31.8477 H       1  <0>         0.0230
     28 H2         14.5822   14.4545   32.2395 H       1  <0>         0.0230
     29 H3         14.1750   12.8454   32.9265 H       1  <0>         0.0230
     30 H4          9.4195    8.6529   25.6511 H       1  <0>         0.0278
     31 H5          9.8532   10.3959   25.6305 H       1  <0>         0.0278
     32 H6         10.9758    9.1823   24.9276 H       1  <0>         0.0278
     33 H7          7.2630    9.3107   29.4418 H       1  <0>         0.0235
     34 H8          6.3812    8.4451   30.7455 H       1  <0>         0.0235
     35 H9          5.8255   10.0669   30.2089 H       1  <0>         0.0235
     36 H10         7.5350   10.7652   33.5555 H       1  <0>         0.0235
     37 H11         5.9857   10.9338   32.6625 H       1  <0>         0.0235
     38 H12         6.5413    9.3120   33.1991 H       1  <0>         0.0235
     39 H13        12.3957    7.7393   26.4342 H       1  <0>         0.0633
     40 H14         9.6557   10.6787   28.0652 H       1  <0>         0.0627
     41 H15        12.6580    8.8591   30.6393 H       1  <0>         0.0637
     42 H16        14.0833   13.6001   29.9432 H       1  <0>         0.0263
     43 H17        13.6762   11.9914   30.6301 H       1  <0>         0.0263
     44 H18        11.8250   12.9832   31.9406 H       1  <0>         0.0280
     45 H19        12.2653   14.6252   31.3666 H       1  <0>         0.0280
     46 H20        11.4119   14.2624   29.2300 H       1  <0>         0.0469
     47 H21        11.8095   12.5051   29.2564 H       1  <0>         0.0469
     48 H22         8.4845    9.4265   31.6114 H       1  <0>         0.0346
     49 H23         7.1440   14.6225   30.2863 H       1  <0>         0.1594
@<TRIPOS>BOND
     1     1     8    1
     2     2    12    1
     3     3    19    1
     4     4    19    1
     5     5    12   ar
     6     5    13   ar
     7     6    12   ar
     8     6    14   ar
     9     7    13   ar
    10     7    14   ar
    11     8     9    1
    12     9    10    1
    13    10    23    1
    14    11    13    1
    15    11    21    3
    16    14    20    1
    17    15    16    2
    18    15    17    1
    19    15    19    1
    20    16    20    1
    21    16    23    1
    22    17    22   am
    23    17    24    2
    24    18    22   am
    25    18    23   am
    26    18    25    2
    27    20    26    2
    28     1    27    1
    29     1    28    1
    30     1    29    1
    31     2    30    1
    32     2    31    1
    33     2    32    1
    34     3    33    1
    35     3    34    1
    36     3    35    1
    37     4    36    1
    38     4    37    1
    39     4    38    1
    40     5    39    1
    41     6    40    1
    42     7    41    1
    43     8    42    1
    44     8    43    1
    45     9    44    1
    46     9    45    1
    47    10    46    1
    48    10    47    1
    49    19    48    1
    50    22    49    1
@<TRIPOS>SUBSTRUCTURE
     1 <0>         1 TEMP              0 ****  ****    0 ROOT

