
##########                                Name:        KBT_561_3LAN
##########                    Molecular_Weight:             353.421
##########                DOCK_Rotatable_Bonds:                   6
##########                       Formal_Charge:        -0.000299692
##########                     HBond_Acceptors:                   6
##########                        HBond_Donors:                   1
##########                         Heavy_Atoms:                  26
##########                            HA_RMSDs:               0.271
##########                            HA_RMSDh:               0.271
##########                            HA_RMSDm:               0.271
##########                          Grid_Score:          -45.667938
##########                     Grid_vdw_energy:          -44.225426
##########                      Grid_es_energy:           -1.442513
##########           Internal_energy_repulsive:           13.903103

@<TRIPOS>MOLECULE
KBT_561_3LAN
 49 50 1 0 0
SMALL
USER_CHARGES


@<TRIPOS>ATOM
      1 C1          5.6759    8.3985   17.3101 C.3     1  <0>        -0.0652
      2 C2         10.3527   16.1082   20.0179 C.3     1  <0>        -0.0397
      3 C3         12.9315   13.8870   15.8026 C.3     1  <0>        -0.0584
      4 C4         12.9129   11.4315   14.9752 C.3     1  <0>        -0.0584
      5 C5         10.1091   13.8957   21.3211 C.ar    1  <0>        -0.0414
      6 C6         10.0324   13.8515   18.8597 C.ar    1  <0>        -0.0479
      7 C7          9.8135   11.7279   20.1201 C.ar    1  <0>        -0.0335
      8 C8          5.9905    9.8918   17.5273 C.3     1  <0>        -0.0545
      9 C9          6.7232   10.4442   16.2926 C.3     1  <0>        -0.0370
     10 C10         7.0362   11.9434   16.5241 C.3     1  <0>         0.0214
     11 C11         9.8511   11.7850   22.5675 C.1     1  <0>         0.0992
     12 C12        10.1655   14.5894   20.0726 C.ar    1  <0>        -0.0486
     13 C13         9.9324   12.4680   21.3345 C.ar    1  <0>         0.0527
     14 C14         9.8603   12.4141   18.8707 C.ar    1  <0>         0.0250
     15 C15        10.7112   12.6350   15.4348 C.2     1  <0>         0.0424
     16 C16         9.6029   12.2250   16.1989 C.2     1  <0>         0.0935
     17 C17        10.3360   13.2411   14.0724 C.2     1  <0>         0.2496
     18 C18         8.0150   12.9166   14.5132 C.2     1  <0>         0.3131
     19 C19        12.1855   12.5096   15.8680 C.3     1  <0>        -0.0147
     20 C20         9.6997   11.6064   17.5894 C.2     1  <0>         0.2078
     21 N1          9.7503   11.2303   23.5685 N.1     1  <0>        -0.1909
     22 N2          9.0347   13.3329   13.7335 N.am    1  <0>        -0.2359
     23 N3          8.2637   12.3781   15.7198 N.am    1  <0>        -0.2513
     24 O1         11.1711   13.6521   13.2829 O.2     1  <0>        -0.2700
     25 O2          6.8739   13.0624   14.0727 O.2     1  <0>        -0.2518
     26 O3          9.6113   10.3886   17.6457 O.2     1  <0>        -0.2853
     27 H1          5.1519    8.0016   18.1921 H       1  <0>         0.0230
     28 H2          5.0371    8.2839   16.4220 H       1  <0>         0.0230
     29 H3          6.6142    7.8442   17.1610 H       1  <0>         0.0230
     30 H4         11.4262   16.3445   19.9750 H       1  <0>         0.0278
     31 H5          9.8535   16.5070   19.1224 H       1  <0>         0.0278
     32 H6          9.9128   16.5643   20.9170 H       1  <0>         0.0278
     33 H7         12.4055   14.6197   16.4323 H       1  <0>         0.0235
     34 H8         13.9621   13.7634   16.1671 H       1  <0>         0.0235
     35 H9         12.9507   14.2444   14.7625 H       1  <0>         0.0235
     36 H10        12.3709   10.4764   15.0382 H       1  <0>         0.0235
     37 H11        12.9319   11.7738   13.9299 H       1  <0>         0.0235
     38 H12        13.9432   11.2928   15.3345 H       1  <0>         0.0235
     39 H13        10.1985   14.4405   22.2494 H       1  <0>         0.0633
     40 H14        10.0606   14.3746   17.9153 H       1  <0>         0.0627
     41 H15         9.6889   10.6555   20.1470 H       1  <0>         0.0637
     42 H16         5.0526   10.4468   17.6765 H       1  <0>         0.0263
     43 H17         6.6294   10.0071   18.4153 H       1  <0>         0.0263
     44 H18         7.6608    9.8896   16.1398 H       1  <0>         0.0280
     45 H19         6.0858   10.3322   15.4031 H       1  <0>         0.0280
     46 H20         6.1701   12.5425   16.2063 H       1  <0>         0.0469
     47 H21         7.2337   12.1064   17.5939 H       1  <0>         0.0469
     48 H22        12.2084   12.1830   16.9182 H       1  <0>         0.0346
     49 H23         8.8101   13.7359   12.8463 H       1  <0>         0.1594
@<TRIPOS>BOND
     1     1     8    1
     2     2    12    1
     3     3    19    1
     4     4    19    1
     5     5    12   ar
     6     5    13   ar
     7     6    12   ar
     8     6    14   ar
     9     7    13   ar
    10     7    14   ar
    11     8     9    1
    12     9    10    1
    13    10    23    1
    14    11    13    1
    15    11    21    3
    16    14    20    1
    17    15    16    2
    18    15    17    1
    19    15    19    1
    20    16    20    1
    21    16    23    1
    22    17    22   am
    23    17    24    2
    24    18    22   am
    25    18    23   am
    26    18    25    2
    27    20    26    2
    28     1    27    1
    29     1    28    1
    30     1    29    1
    31     2    30    1
    32     2    31    1
    33     2    32    1
    34     3    33    1
    35     3    34    1
    36     3    35    1
    37     4    36    1
    38     4    37    1
    39     4    38    1
    40     5    39    1
    41     6    40    1
    42     7    41    1
    43     8    42    1
    44     8    43    1
    45     9    44    1
    46     9    45    1
    47    10    46    1
    48    10    47    1
    49    19    48    1
    50    22    49    1
@<TRIPOS>SUBSTRUCTURE
     1 <0>         1 TEMP              0 ****  ****    0 ROOT

