
##########                                Name:        KBT_561_3LAN
##########                    Molecular_Weight:             353.421
##########                DOCK_Rotatable_Bonds:                   6
##########                       Formal_Charge:        -0.000299692
##########                     HBond_Acceptors:                   6
##########                        HBond_Donors:                   1
##########                         Heavy_Atoms:                  26
##########                            HA_RMSDs:               0.381
##########                            HA_RMSDh:               0.381
##########                            HA_RMSDm:               0.381
##########                          Grid_Score:          -39.881374
##########                     Grid_vdw_energy:          -38.342285
##########                      Grid_es_energy:           -1.539089
##########           Internal_energy_repulsive:           14.200742

@<TRIPOS>MOLECULE
KBT_561_3LAN
 49 50 1 0 0
SMALL
USER_CHARGES


@<TRIPOS>ATOM
      1 C1          5.6238    8.5041   17.1551 C.3     1  <0>        -0.0652
      2 C2         10.5113   15.9643   19.8895 C.3     1  <0>        -0.0397
      3 C3         12.9210   13.5765   16.0332 C.3     1  <0>        -0.0584
      4 C4         12.9413   11.3899   14.6428 C.3     1  <0>        -0.0584
      5 C5         10.1657   13.7640   21.1904 C.ar    1  <0>        -0.0414
      6 C6         10.0771   13.7277   18.7293 C.ar    1  <0>        -0.0479
      7 C7          9.7604   11.6151   19.9874 C.ar    1  <0>        -0.0335
      8 C8          5.7975   10.0280   17.3092 C.3     1  <0>        -0.0545
      9 C9          6.5259   10.5863   16.0747 C.3     1  <0>        -0.0370
     10 C10         7.0014   12.0280   16.3823 C.3     1  <0>         0.0214
     11 C11         9.8106   11.6662   22.4347 C.1     1  <0>         0.0992
     12 C12        10.2508   14.4562   19.9427 C.ar    1  <0>        -0.0486
     13 C13         9.9200   12.3465   21.2024 C.ar    1  <0>         0.0527
     14 C14         9.8354   12.3003   18.7389 C.ar    1  <0>         0.0250
     15 C15        10.7200   12.4550   15.3049 C.2     1  <0>         0.0424
     16 C16         9.5827   12.1258   16.0656 C.2     1  <0>         0.0935
     17 C17        10.3934   13.0846   13.9407 C.2     1  <0>         0.2496
     18 C18         8.0537   12.9267   14.3739 C.2     1  <0>         0.3131
     19 C19        12.1802   12.2255   15.7433 C.3     1  <0>        -0.0147
     20 C20         9.6305   11.5036   17.4571 C.2     1  <0>         0.2078
     21 N1          9.6870   11.1154   23.4353 N.1     1  <0>        -0.1909
     22 N2          9.1030   13.2684   13.5973 N.am    1  <0>        -0.2359
     23 N3          8.2594   12.3733   15.5818 N.am    1  <0>        -0.2513
     24 O1         11.2583   13.4342   13.1536 O.2     1  <0>        -0.2700
     25 O2          6.9274   13.1528   13.9293 O.2     1  <0>        -0.2518
     26 O3          9.4629   10.2941   17.5134 O.2     1  <0>        -0.2853
     27 H1          5.1030    8.1029   18.0371 H       1  <0>         0.0230
     28 H2          5.0321    8.2921   16.2523 H       1  <0>         0.0230
     29 H3          6.6121    8.0297   17.0658 H       1  <0>         0.0230
     30 H4         11.5948   16.1482   19.8425 H       1  <0>         0.0278
     31 H5         10.0284   16.3883   18.9967 H       1  <0>         0.0278
     32 H6         10.0977   16.4397   20.7910 H       1  <0>         0.0278
     33 H7         12.3713   14.1390   16.8023 H       1  <0>         0.0235
     34 H8         13.9398   13.3664   16.3909 H       1  <0>         0.0235
     35 H9         12.9719   14.1720   15.1098 H       1  <0>         0.0235
     36 H10        12.4023   10.4490   14.4582 H       1  <0>         0.0235
     37 H11        12.9923   11.9720   13.7109 H       1  <0>         0.0235
     38 H12        13.9602   11.1664   14.9919 H       1  <0>         0.0235
     39 H13        10.2853   14.3022   22.1191 H       1  <0>         0.0633
     40 H14        10.1268   14.2504   17.7856 H       1  <0>         0.0627
     41 H15         9.5839   10.5499   20.0132 H       1  <0>         0.0637
     42 H16         4.8094   10.5030   17.3987 H       1  <0>         0.0263
     43 H17         6.3891   10.2407   18.2119 H       1  <0>         0.0263
     44 H18         7.3937    9.9527   15.8390 H       1  <0>         0.0280
     45 H19         5.8404   10.5983   15.2144 H       1  <0>         0.0280
     46 H20         6.2014   12.7333   16.1128 H       1  <0>         0.0469
     47 H21         7.2275   12.1086   17.4558 H       1  <0>         0.0469
     48 H22        12.1708   11.6573   16.6852 H       1  <0>         0.0346
     49 H23         8.9108   13.6853   12.7089 H       1  <0>         0.1594
@<TRIPOS>BOND
     1     1     8    1
     2     2    12    1
     3     3    19    1
     4     4    19    1
     5     5    12   ar
     6     5    13   ar
     7     6    12   ar
     8     6    14   ar
     9     7    13   ar
    10     7    14   ar
    11     8     9    1
    12     9    10    1
    13    10    23    1
    14    11    13    1
    15    11    21    3
    16    14    20    1
    17    15    16    2
    18    15    17    1
    19    15    19    1
    20    16    20    1
    21    16    23    1
    22    17    22   am
    23    17    24    2
    24    18    22   am
    25    18    23   am
    26    18    25    2
    27    20    26    2
    28     1    27    1
    29     1    28    1
    30     1    29    1
    31     2    30    1
    32     2    31    1
    33     2    32    1
    34     3    33    1
    35     3    34    1
    36     3    35    1
    37     4    36    1
    38     4    37    1
    39     4    38    1
    40     5    39    1
    41     6    40    1
    42     7    41    1
    43     8    42    1
    44     8    43    1
    45     9    44    1
    46     9    45    1
    47    10    46    1
    48    10    47    1
    49    19    48    1
    50    22    49    1
@<TRIPOS>SUBSTRUCTURE
     1 <0>         1 TEMP              0 ****  ****    0 ROOT

