
##########                                Name:               *****
##########                    Molecular_Weight:             355.372
##########                DOCK_Rotatable_Bonds:                   6
##########                       Formal_Charge:                  -1
##########                     HBond_Acceptors:                  10
##########                        HBond_Donors:                   4
##########                         Heavy_Atoms:                  23
##########                            HA_RMSDs:              12.432
##########                            HA_RMSDh:              11.777
##########                            HA_RMSDm:              11.125
##########                          Grid_Score:           -2.930946
##########                     Grid_vdw_energy:          -22.458313
##########                      Grid_es_energy:           19.527367
##########           Internal_energy_repulsive:            4.457054

@<TRIPOS>MOLECULE
*****
 34 35 1 0 0
SMALL
USER_CHARGES


@<TRIPOS>ATOM
      1 C1         85.0640    7.5757   19.8034 C.3     1  <0>         0.0419
      2 N1         83.9707    6.6339   19.6530 N.4     1  <0>         0.2283
      3 O1         85.9746    6.1604   18.1289 O.co2   1  <0>        -0.5439
      4 S1         84.6614   11.1167   24.4195 S.o2    1  <0>         0.0735
      5 C2         86.1882    7.1379   18.8941 C.2     1  <0>         0.0942
      6 N2         85.9178   10.3123   23.8087 N.pl3   1  <0>        -0.2162
      7 O2         87.2734    7.7496   18.8777 O.co2   1  <0>        -0.5439
      8 S2         86.0076   13.7530   27.2678 S.3     1  <0>        -0.0935
      9 C3         85.3907    7.7056   21.2557 C.ar    1  <0>         0.0076
     10 O3         83.6662   10.1560   24.7899 O.2     1  <0>        -0.1499
     11 C4         85.5189    6.5802   22.0568 C.ar    1  <0>        -0.0528
     12 O4         84.1590   11.9932   23.4069 O.2     1  <0>        -0.1499
     13 C5         85.7974    6.6944   23.4109 C.ar    1  <0>        -0.0595
     14 O5         86.9318   13.5996   23.6860 O.co2   1  <0>        -0.5440
     15 C6         85.9259    7.9564   23.9845 C.ar    1  <0>        -0.0393
     16 O6         85.7270   15.2529   24.4982 O.co2   1  <0>        -0.5440
     17 C7         85.7699    9.1006   23.2058 C.ar    1  <0>         0.0485
     18 C8         85.1100   11.9979   25.7526 C.2     1  <0>         0.1243
     19 C9         84.8664   11.5269   27.0484 C.2     1  <0>        -0.0274
     20 C10        85.3192   12.4133   28.0317 C.2     1  <0>        -0.0218
     21 C11        85.7398   13.2322   25.6955 C.2     1  <0>         0.0610
     22 C12        86.1696   14.0770   24.5522 C.2     1  <0>         0.0801
     23 C13        85.4998    8.9749   21.8385 C.ar    1  <0>        -0.0304
     24 H1         84.8130    8.5979   19.4838 H       1  <0>         0.0968
     25 H2         83.7431    6.5388   18.6839 H       1  <0>         0.2004
     26 H3         84.2440    5.7447   20.0200 H       1  <0>         0.2004
     27 H4         83.1713    6.9690   20.1516 H       1  <0>         0.2004
     28 H5         86.3070   10.9133   23.1106 H       1  <0>         0.1737
     29 H6         85.4000    5.6000   21.6194 H       1  <0>         0.0622
     30 H7         85.9139    5.8084   24.0175 H       1  <0>         0.0618
     31 H8         86.1474    8.0485   25.0375 H       1  <0>         0.0636
     32 H9         84.3834   10.5855   27.2646 H       1  <0>         0.0643
     33 H10        85.2416   12.2657   29.0988 H       1  <0>         0.0694
     34 H11        85.3752    9.8590   21.2307 H       1  <0>         0.0641
@<TRIPOS>BOND
     1    16    22    1
     2     8    20    1
     3     8    21    1
     4    21    22    1
     5    14    22    2
     6    19    20    2
     7    18    21    2
     8    18    19    1
     9     4    18    1
    10     4    12    2
    11     4     6    1
    12     4    10    2
    13    13    15   ar
    14    15    17   ar
    15     6    17    1
    16    11    13   ar
    17    17    23   ar
    18     9    11   ar
    19     9    23   ar
    20     1     9    1
    21     5     7    2
    22     1     5    1
    23     1     2    1
    24     3     5    1
    25     1    24    1
    26     2    25    1
    27     2    26    1
    28     2    27    1
    29     6    28    1
    30    11    29    1
    31    13    30    1
    32    15    31    1
    33    19    32    1
    34    20    33    1
    35    23    34    1
@<TRIPOS>SUBSTRUCTURE
     1 <0>         1 TEMP              0 ****  ****    0 ROOT

