
##########                                Name:               *****
##########                    Molecular_Weight:             355.372
##########                DOCK_Rotatable_Bonds:                   6
##########                       Formal_Charge:                  -1
##########                     HBond_Acceptors:                  10
##########                        HBond_Donors:                   4
##########                         Heavy_Atoms:                  23
##########                            HA_RMSDs:               9.668
##########                            HA_RMSDh:               9.562
##########                            HA_RMSDm:               8.827
##########                          Grid_Score:            0.729406
##########                     Grid_vdw_energy:          -28.853086
##########                      Grid_es_energy:           29.582493
##########           Internal_energy_repulsive:            7.863139

@<TRIPOS>MOLECULE
*****
 34 35 1 0 0
SMALL
USER_CHARGES


@<TRIPOS>ATOM
      1 C1         83.0540    4.8711   26.9802 C.3     1  <0>         0.0419
      2 N1         81.9702    4.4907   26.0939 N.4     1  <0>         0.2283
      3 O1         81.4188    4.4933   28.6593 O.co2   1  <0>        -0.5439
      4 S1         86.5787    5.8742   22.7125 S.o2    1  <0>         0.0735
      5 C2         82.4738    5.1103   28.3543 C.2     1  <0>         0.0942
      6 N2         86.6801    6.6162   24.1401 N.pl3   1  <0>        -0.2162
      7 O2         83.0434    5.8627   29.1677 O.co2   1  <0>        -0.5439
      8 S2         85.7984    8.8665   20.0084 S.3     1  <0>        -0.0935
      9 C3         83.8034    6.0073   26.3637 C.ar    1  <0>         0.0076
     10 O3         85.6456    4.7963   22.8460 O.2     1  <0>        -0.1499
     11 C4         83.3807    7.3163   26.5443 C.ar    1  <0>        -0.0528
     12 O4         87.8764    5.3747   22.3773 O.2     1  <0>        -0.1499
     13 C5         84.0570    8.3740   25.9543 C.ar    1  <0>        -0.0595
     14 O5         88.8328    8.2132   22.1596 O.co2   1  <0>        -0.5440
     15 C6         85.1627    8.1211   25.1471 C.ar    1  <0>        -0.0393
     16 O6         87.6857   10.0902   22.0831 O.co2   1  <0>        -0.5440
     17 C7         85.5860    6.8127   24.9262 C.ar    1  <0>         0.0485
     18 C8         86.0581    6.9203   21.5336 C.2     1  <0>         0.1243
     19 C9         84.9660    6.6055   20.7161 C.2     1  <0>        -0.0274
     20 C10        84.6860    7.6149   19.7885 C.2     1  <0>        -0.0218
     21 C11        86.6429    8.1495   21.2685 C.2     1  <0>         0.0610
     22 C12        87.7978    8.8539   21.8813 C.2     1  <0>         0.0801
     23 C13        84.9036    5.7532   25.5345 C.ar    1  <0>        -0.0304
     24 H1         83.8094    4.0832   27.1168 H       1  <0>         0.0968
     25 H2         81.4610    3.7302   26.4966 H       1  <0>         0.2004
     26 H3         81.3574    5.2701   25.9635 H       1  <0>         0.2004
     27 H4         82.3452    4.2099   25.2105 H       1  <0>         0.2004
     28 H5         87.3067    6.0609   24.6868 H       1  <0>         0.1737
     29 H6         82.5114    7.5148   27.1536 H       1  <0>         0.0622
     30 H7         83.7274    9.3890   26.1205 H       1  <0>         0.0618
     31 H8         85.6943    8.9428   24.6903 H       1  <0>         0.0636
     32 H9         84.4031    5.6871   20.7928 H       1  <0>         0.0643
     33 H10        83.8928    7.5967   19.0559 H       1  <0>         0.0694
     34 H11        85.2261    4.7365   25.3642 H       1  <0>         0.0641
@<TRIPOS>BOND
     1    16    22    1
     2     8    20    1
     3     8    21    1
     4    21    22    1
     5    14    22    2
     6    19    20    2
     7    18    21    2
     8    18    19    1
     9     4    18    1
    10     4    12    2
    11     4     6    1
    12     4    10    2
    13    13    15   ar
    14    15    17   ar
    15     6    17    1
    16    11    13   ar
    17    17    23   ar
    18     9    11   ar
    19     9    23   ar
    20     1     9    1
    21     5     7    2
    22     1     5    1
    23     1     2    1
    24     3     5    1
    25     1    24    1
    26     2    25    1
    27     2    26    1
    28     2    27    1
    29     6    28    1
    30    11    29    1
    31    13    30    1
    32    15    31    1
    33    19    32    1
    34    20    33    1
    35    23    34    1
@<TRIPOS>SUBSTRUCTURE
     1 <0>         1 TEMP              0 ****  ****    0 ROOT

