
##########                                Name:               *****
##########                    Molecular_Weight:             355.372
##########                DOCK_Rotatable_Bonds:                   6
##########                       Formal_Charge:                  -1
##########                     HBond_Acceptors:                  10
##########                        HBond_Donors:                   4
##########                         Heavy_Atoms:                  23
##########                            HA_RMSDs:              12.457
##########                            HA_RMSDh:              12.400
##########                            HA_RMSDm:              11.554
##########                          Grid_Score:            0.139055
##########                     Grid_vdw_energy:          -20.231861
##########                      Grid_es_energy:           20.370916
##########           Internal_energy_repulsive:            7.016381

@<TRIPOS>MOLECULE
*****
 34 35 1 0 0
SMALL
USER_CHARGES


@<TRIPOS>ATOM
      1 C1         88.4644    5.1314   23.5308 C.3     1  <0>         0.0419
      2 N1         87.3773    4.2665   23.9491 N.4     1  <0>         0.2283
      3 O1         89.6239    4.1654   25.3634 O.co2   1  <0>        -0.5439
      4 S1         86.6153   10.1235   21.0107 S.o2    1  <0>         0.0735
      5 C2         89.7284    4.6565   24.2082 C.2     1  <0>         0.0942
      6 N2         87.8521    9.7664   21.9810 N.pl3   1  <0>        -0.2162
      7 O2         90.8280    4.7153   23.6253 O.co2   1  <0>        -0.5439
      8 S2         86.0085   14.1503   21.5509 S.3     1  <0>        -0.0935
      9 C3         88.0693    6.5520   23.7728 C.ar    1  <0>         0.0076
     10 O3         85.5492    9.2157   21.3102 O.2     1  <0>        -0.1499
     11 C4         87.5467    6.9437   24.9968 C.ar    1  <0>        -0.0528
     12 O4         87.0488    9.9582   19.6577 O.2     1  <0>        -0.1499
     13 C5         87.1546    8.2555   25.2201 C.ar    1  <0>        -0.0595
     14 O5         89.0595   12.0194   20.5489 O.co2   1  <0>        -0.5440
     15 C6         87.2616    9.1912   24.1949 C.ar    1  <0>        -0.0393
     16 O6         88.9622   13.9459   21.6091 O.co2   1  <0>        -0.5440
     17 C7         87.7538    8.8132   22.9480 C.ar    1  <0>         0.0485
     18 C8         86.1030   11.6842   21.2492 C.2     1  <0>         0.1243
     19 C9         84.7471   11.9823   21.4301 C.2     1  <0>        -0.0274
     20 C10        84.5223   13.3508   21.6159 C.2     1  <0>        -0.0218
     21 C11        86.9463   12.7846   21.2858 C.2     1  <0>         0.0610
     22 C12        88.4183   12.9143   21.1382 C.2     1  <0>         0.0801
     23 C13        88.1569    7.4900   22.7359 C.ar    1  <0>        -0.0304
     24 H1         88.6767    5.0832   22.4525 H       1  <0>         0.0968
     25 H2         87.6307    3.3120   23.7917 H       1  <0>         0.2004
     26 H3         87.1955    4.4068   24.9224 H       1  <0>         0.2004
     27 H4         86.5562    4.4845   23.4217 H       1  <0>         0.2004
     28 H5         88.5873    9.4600   21.3763 H       1  <0>         0.1737
     29 H6         87.4436    6.2160   25.7881 H       1  <0>         0.0622
     30 H7         86.7681    8.5494   26.1848 H       1  <0>         0.0618
     31 H8         86.9616   10.2143   24.3672 H       1  <0>         0.0636
     32 H9         83.9630   11.2397   21.4267 H       1  <0>         0.0643
     33 H10        83.5610   13.8168   21.7742 H       1  <0>         0.0694
     34 H11        88.5367    7.1910   21.7701 H       1  <0>         0.0641
@<TRIPOS>BOND
     1    16    22    1
     2     8    20    1
     3     8    21    1
     4    21    22    1
     5    14    22    2
     6    19    20    2
     7    18    21    2
     8    18    19    1
     9     4    18    1
    10     4    12    2
    11     4     6    1
    12     4    10    2
    13    13    15   ar
    14    15    17   ar
    15     6    17    1
    16    11    13   ar
    17    17    23   ar
    18     9    11   ar
    19     9    23   ar
    20     1     9    1
    21     5     7    2
    22     1     5    1
    23     1     2    1
    24     3     5    1
    25     1    24    1
    26     2    25    1
    27     2    26    1
    28     2    27    1
    29     6    28    1
    30    11    29    1
    31    13    30    1
    32    15    31    1
    33    19    32    1
    34    20    33    1
    35    23    34    1
@<TRIPOS>SUBSTRUCTURE
     1 <0>         1 TEMP              0 ****  ****    0 ROOT

