
##########                                Name:               *****
##########                    Molecular_Weight:             355.372
##########                DOCK_Rotatable_Bonds:                   6
##########                       Formal_Charge:                  -1
##########                     HBond_Acceptors:                  10
##########                        HBond_Donors:                   4
##########                         Heavy_Atoms:                  23
##########                            HA_RMSDs:               8.378
##########                            HA_RMSDh:               6.564
##########                            HA_RMSDm:               5.152
##########                          Grid_Score:            6.260643
##########                     Grid_vdw_energy:          -27.605255
##########                      Grid_es_energy:           33.865898
##########           Internal_energy_repulsive:            8.497780

@<TRIPOS>MOLECULE
*****
 34 35 1 0 0
SMALL
USER_CHARGES


@<TRIPOS>ATOM
      1 C1         83.0799    5.4047   29.0725 C.3     1  <0>         0.0419
      2 N1         83.2289    4.0740   28.5141 N.4     1  <0>         0.2283
      3 O1         82.5617    6.2108   26.9005 O.co2   1  <0>        -0.5439
      4 S1         83.7395    4.6452   34.8750 S.o2    1  <0>         0.0735
      5 C2         83.2315    6.4039   27.9497 C.2     1  <0>         0.0942
      6 N2         83.9421    5.9095   33.8956 N.pl3   1  <0>        -0.2162
      7 O2         83.9651    7.4030   28.0764 O.co2   1  <0>        -0.5439
      8 S2         87.2258    4.2701   37.0152 S.3     1  <0>        -0.0935
      9 C3         84.0169    5.5494   30.2275 C.ar    1  <0>         0.0076
     10 O3         83.2871    3.5443   34.0789 O.2     1  <0>        -0.1499
     11 C4         85.3902    5.5011   30.0365 C.ar    1  <0>        -0.0528
     12 O4         82.7561    4.9932   35.8535 O.2     1  <0>        -0.1499
     13 C5         86.2653    5.6098   31.1073 C.ar    1  <0>        -0.0595
     14 O5         84.5766    7.0702   36.5445 O.co2   1  <0>        -0.5440
     15 C6         85.7620    5.7440   32.3983 C.ar    1  <0>        -0.0393
     16 O6         86.3542    6.9391   37.8360 O.co2   1  <0>        -0.5440
     17 C7         84.3866    5.7631   32.6171 C.ar    1  <0>         0.0485
     18 C8         85.1626    4.2417   35.6282 C.2     1  <0>         0.1243
     19 C9         85.7625    2.9934   35.4232 C.2     1  <0>        -0.0274
     20 C10        86.9522    2.8487   36.1452 C.2     1  <0>        -0.0218
     21 C11        85.8504    5.0779   36.4946 C.2     1  <0>         0.0610
     22 C12        85.5709    6.4532   36.9804 C.2     1  <0>         0.0801
     23 C13        83.5120    5.6637   31.5293 C.ar    1  <0>        -0.0304
     24 H1         82.0839    5.5954   29.4988 H       1  <0>         0.0968
     25 H2         82.6059    3.9654   27.7394 H       1  <0>         0.2004
     26 H3         84.1711    3.9462   28.2044 H       1  <0>         0.2004
     27 H4         83.0125    3.3930   29.2136 H       1  <0>         0.2004
     28 H5         83.0410    6.3361   33.8188 H       1  <0>         0.1737
     29 H6         85.7840    5.3770   29.0386 H       1  <0>         0.0622
     30 H7         87.3321    5.5903   30.9402 H       1  <0>         0.0618
     31 H8         86.4408    5.8336   33.2335 H       1  <0>         0.0636
     32 H9         85.3532    2.2283   34.7802 H       1  <0>         0.0643
     33 H10        87.5880    1.9757   36.1460 H       1  <0>         0.0694
     34 H11        82.4446    5.6752   31.6937 H       1  <0>         0.0641
@<TRIPOS>BOND
     1    16    22    1
     2     8    20    1
     3     8    21    1
     4    21    22    1
     5    14    22    2
     6    19    20    2
     7    18    21    2
     8    18    19    1
     9     4    18    1
    10     4    12    2
    11     4     6    1
    12     4    10    2
    13    13    15   ar
    14    15    17   ar
    15     6    17    1
    16    11    13   ar
    17    17    23   ar
    18     9    11   ar
    19     9    23   ar
    20     1     9    1
    21     5     7    2
    22     1     5    1
    23     1     2    1
    24     3     5    1
    25     1    24    1
    26     2    25    1
    27     2    26    1
    28     2    27    1
    29     6    28    1
    30    11    29    1
    31    13    30    1
    32    15    31    1
    33    19    32    1
    34    20    33    1
    35    23    34    1
@<TRIPOS>SUBSTRUCTURE
     1 <0>         1 TEMP              0 ****  ****    0 ROOT

