
##########                                Name:               *****
##########                    Molecular_Weight:             355.372
##########                DOCK_Rotatable_Bonds:                   6
##########                       Formal_Charge:                  -1
##########                     HBond_Acceptors:                  10
##########                        HBond_Donors:                   4
##########                         Heavy_Atoms:                  23
##########                            HA_RMSDs:               8.989
##########                            HA_RMSDh:               8.860
##########                            HA_RMSDm:               8.408
##########                          Grid_Score:            3.949722
##########                     Grid_vdw_energy:          -17.065918
##########                      Grid_es_energy:           21.015640
##########           Internal_energy_repulsive:            7.835866

@<TRIPOS>MOLECULE
*****
 34 35 1 0 0
SMALL
USER_CHARGES


@<TRIPOS>ATOM
      1 C1         84.5584    5.1720   29.5148 C.3     1  <0>         0.0419
      2 N1         83.8803    3.9366   29.1703 N.4     1  <0>         0.2283
      3 O1         83.1087    4.9778   31.3847 O.co2   1  <0>        -0.5439
      4 S1         87.1571    6.7967   24.3448 S.o2    1  <0>         0.0735
      5 C2         83.9337    5.7126   30.7796 C.2     1  <0>         0.0942
      6 N2         86.8540    7.4379   25.7925 N.pl3   1  <0>        -0.2162
      7 O2         84.2554    6.8306   31.2253 O.co2   1  <0>        -0.5439
      8 S2         87.4491    9.9441   21.7211 S.3     1  <0>        -0.0935
      9 C3         84.5471    6.0752   28.3245 C.ar    1  <0>         0.0076
     10 O3         86.1806    5.7769   24.1059 O.2     1  <0>        -0.1499
     11 C4         83.3587    6.6184   27.8582 C.ar    1  <0>        -0.0528
     12 O4         88.4719    6.2344   24.3733 O.2     1  <0>        -0.1499
     13 C5         83.3375    7.4375   26.7389 C.ar    1  <0>        -0.0595
     14 O5         89.2999    8.8924   24.9685 O.co2   1  <0>        -0.5440
     15 C6         84.5209    7.7008   26.0547 C.ar    1  <0>        -0.0393
     16 O6         89.6555   10.5364   23.5489 O.co2   1  <0>        -0.5440
     17 C7         85.7209    7.1407   26.4862 C.ar    1  <0>         0.0485
     18 C8         87.0647    7.9480   23.1527 C.2     1  <0>         0.1243
     19 C9         86.1117    7.8587   22.1310 C.2     1  <0>        -0.0274
     20 C10        86.1969    8.9238   21.2278 C.2     1  <0>        -0.0218
     21 C11        87.8965    9.0547   23.0716 C.2     1  <0>         0.0610
     22 C12        89.0180    9.5202   23.9266 C.2     1  <0>         0.0801
     23 C13        85.7337    6.3244   27.6228 C.ar    1  <0>        -0.0304
     24 H1         85.6245    5.0391   29.7511 H       1  <0>         0.0968
     25 H2         83.8817    3.3235   29.9603 H       1  <0>         0.2004
     26 H3         82.9370    4.1369   28.9056 H       1  <0>         0.2004
     27 H4         84.3548    3.4977   28.4072 H       1  <0>         0.2004
     28 H5         87.6108    7.1472   26.3780 H       1  <0>         0.1737
     29 H6         82.4357    6.4001   28.3747 H       1  <0>         0.0622
     30 H7         82.4073    7.8689   26.3999 H       1  <0>         0.0618
     31 H8         84.5084    8.3421   25.1857 H       1  <0>         0.0636
     32 H9         85.3917    7.0578   22.0492 H       1  <0>         0.0643
     33 H10        85.5684    9.0689   20.3616 H       1  <0>         0.0694
     34 H11        86.6610    5.8854   27.9600 H       1  <0>         0.0641
@<TRIPOS>BOND
     1    16    22    1
     2     8    20    1
     3     8    21    1
     4    21    22    1
     5    14    22    2
     6    19    20    2
     7    18    21    2
     8    18    19    1
     9     4    18    1
    10     4    12    2
    11     4     6    1
    12     4    10    2
    13    13    15   ar
    14    15    17   ar
    15     6    17    1
    16    11    13   ar
    17    17    23   ar
    18     9    11   ar
    19     9    23   ar
    20     1     9    1
    21     5     7    2
    22     1     5    1
    23     1     2    1
    24     3     5    1
    25     1    24    1
    26     2    25    1
    27     2    26    1
    28     2    27    1
    29     6    28    1
    30    11    29    1
    31    13    30    1
    32    15    31    1
    33    19    32    1
    34    20    33    1
    35    23    34    1
@<TRIPOS>SUBSTRUCTURE
     1 <0>         1 TEMP              0 ****  ****    0 ROOT

