
##########                                Name:               *****
##########                    Molecular_Weight:             355.372
##########                DOCK_Rotatable_Bonds:                   6
##########                       Formal_Charge:                  -1
##########                     HBond_Acceptors:                  10
##########                        HBond_Donors:                   4
##########                         Heavy_Atoms:                  23
##########                            HA_RMSDs:              11.860
##########                            HA_RMSDh:              10.787
##########                            HA_RMSDm:              10.238
##########                          Grid_Score:           -1.262512
##########                     Grid_vdw_energy:          -24.390860
##########                      Grid_es_energy:           23.128347
##########           Internal_energy_repulsive:           10.272780

@<TRIPOS>MOLECULE
*****
 34 35 1 0 0
SMALL
USER_CHARGES


@<TRIPOS>ATOM
      1 C1         85.1966    5.1860   23.1975 C.3     1  <0>         0.0419
      2 N1         84.8940    3.7713   23.0887 N.4     1  <0>         0.2283
      3 O1         83.9601    5.7215   21.2430 O.co2   1  <0>        -0.5439
      4 S1         88.5927    6.9253   28.0342 S.o2    1  <0>         0.0735
      5 C2         85.0762    5.7983   21.8217 C.2     1  <0>         0.0942
      6 N2         88.0736    7.3401   26.5655 N.pl3   1  <0>        -0.2162
      7 O2         86.0390    6.3910   21.2983 O.co2   1  <0>        -0.5439
      8 S2         92.6829    7.3023   27.9729 S.3     1  <0>        -0.0935
      9 C3         86.5126    5.3449   23.8873 C.ar    1  <0>         0.0076
     10 O3         88.0133    5.6570   28.3601 O.2     1  <0>        -0.1499
     11 C4         87.5816    4.5181   23.5738 C.ar    1  <0>        -0.0528
     12 O4         88.1589    7.9266   28.9590 O.2     1  <0>        -0.1499
     13 C5         88.7984    4.6435   24.2278 C.ar    1  <0>        -0.0595
     14 O5         89.7092    9.7663   27.6418 O.co2   1  <0>        -0.5440
     15 C6         88.9462    5.5955   25.2327 C.ar    1  <0>        -0.0393
     16 O6         91.8480    9.9991   27.1769 O.co2   1  <0>        -0.5440
     17 C7         87.8770    6.4151   25.5860 C.ar    1  <0>         0.0485
     18 C8         90.2481    6.8083   28.0694 C.2     1  <0>         0.1243
     19 C9         90.8830    5.5903   28.3409 C.2     1  <0>        -0.0274
     20 C10        92.2777    5.7007   28.3237 C.2     1  <0>        -0.0218
     21 C11        91.1097    7.8710   27.8426 C.2     1  <0>         0.0610
     22 C12        90.8630    9.3019   27.5310 C.2     1  <0>         0.0801
     23 C13        86.6567    6.2883   24.9129 C.ar    1  <0>        -0.0304
     24 H1         84.4858    5.7422   23.8264 H       1  <0>         0.0968
     25 H2         84.0144    3.6526   22.6281 H       1  <0>         0.2004
     26 H3         85.6110    3.3169   22.5600 H       1  <0>         0.2004
     27 H4         84.8482    3.3691   24.0030 H       1  <0>         0.2004
     28 H5         87.1834    7.7727   26.7082 H       1  <0>         0.1737
     29 H6         87.4645    3.7650   22.8086 H       1  <0>         0.0622
     30 H7         89.6273    4.0056   23.9586 H       1  <0>         0.0618
     31 H8         89.8938    5.6989   25.7404 H       1  <0>         0.0636
     32 H9         90.3557    4.6693   28.5409 H       1  <0>         0.0643
     33 H10        92.9768    4.8976   28.5043 H       1  <0>         0.0694
     34 H11        85.8236    6.9195   25.1849 H       1  <0>         0.0641
@<TRIPOS>BOND
     1    16    22    1
     2     8    20    1
     3     8    21    1
     4    21    22    1
     5    14    22    2
     6    19    20    2
     7    18    21    2
     8    18    19    1
     9     4    18    1
    10     4    12    2
    11     4     6    1
    12     4    10    2
    13    13    15   ar
    14    15    17   ar
    15     6    17    1
    16    11    13   ar
    17    17    23   ar
    18     9    11   ar
    19     9    23   ar
    20     1     9    1
    21     5     7    2
    22     1     5    1
    23     1     2    1
    24     3     5    1
    25     1    24    1
    26     2    25    1
    27     2    26    1
    28     2    27    1
    29     6    28    1
    30    11    29    1
    31    13    30    1
    32    15    31    1
    33    19    32    1
    34    20    33    1
    35    23    34    1
@<TRIPOS>SUBSTRUCTURE
     1 <0>         1 TEMP              0 ****  ****    0 ROOT

