
##########                                Name:               *****
##########                    Molecular_Weight:             355.372
##########                DOCK_Rotatable_Bonds:                   6
##########                       Formal_Charge:                  -1
##########                     HBond_Acceptors:                  10
##########                        HBond_Donors:                   4
##########                         Heavy_Atoms:                  23
##########                            HA_RMSDs:               5.468
##########                            HA_RMSDh:               5.435
##########                            HA_RMSDm:               4.597
ERROR:  Conformation could not be scored.
Conformation not completely within grid box.

@<TRIPOS>MOLECULE
*****
 34 35 1 0 0
SMALL
USER_CHARGES


@<TRIPOS>ATOM
      1 C1         87.7344    4.6053   32.8309 C.3     1  <0>         0.0419
      2 N1         88.2288    4.6362   34.1946 N.4     1  <0>         0.2283
      3 O1         90.0104    5.0415   32.3155 O.co2   1  <0>        -0.5439
      4 S1         82.0341    3.9823   33.9247 S.o2    1  <0>         0.0735
      5 C2         88.8167    5.1480   31.9275 C.2     1  <0>         0.0942
      6 N2         82.8144    4.5138   32.6180 N.pl3   1  <0>        -0.2162
      7 O2         88.5363    5.6478   30.8213 O.co2   1  <0>        -0.5439
      8 S2         79.1841    6.8381   34.6970 S.3     1  <0>        -0.0935
      9 C3         86.4123    5.2999   32.7826 C.ar    1  <0>         0.0076
     10 O3         83.0127    3.6869   34.9275 O.2     1  <0>        -0.1499
     11 C4         86.3344    6.6823   32.8702 C.ar    1  <0>        -0.0528
     12 O4         81.3146    2.8001   33.5634 O.2     1  <0>        -0.1499
     13 C5         85.1089    7.3320   32.8512 C.ar    1  <0>        -0.0595
     14 O5         80.2532    4.7948   31.5724 O.co2   1  <0>        -0.5440
     15 C6         83.9352    6.5880   32.7685 C.ar    1  <0>        -0.0393
     16 O6         78.7372    6.3669   31.8460 O.co2   1  <0>        -0.5440
     17 C7         83.9881    5.1974   32.7114 C.ar    1  <0>         0.0485
     18 C8         80.9788    5.1293   34.4953 C.2     1  <0>         0.1243
     19 C9         81.0025    5.5333   35.8356 C.2     1  <0>        -0.0274
     20 C10        80.0375    6.5067   36.1162 C.2     1  <0>        -0.0218
     21 C11        80.0177    5.7594   33.7190 C.2     1  <0>         0.0610
     22 C12        79.6560    5.6286   32.2846 C.2     1  <0>         0.0801
     23 C13        85.2296    4.5517   32.7203 C.ar    1  <0>        -0.0304
     24 H1         87.5275    3.5907   32.4595 H       1  <0>         0.0968
     25 H2         89.1142    4.1736   34.2392 H       1  <0>         0.2004
     26 H3         88.3338    5.5860   34.4894 H       1  <0>         0.2004
     27 H4         87.5790    4.1705   34.7952 H       1  <0>         0.2004
     28 H5         83.0219    3.6973   32.0792 H       1  <0>         0.1737
     29 H6         87.2419    7.2616   32.9547 H       1  <0>         0.0622
     30 H7         85.0656    8.4101   32.9002 H       1  <0>         0.0618
     31 H8         82.9798    7.0912   32.7486 H       1  <0>         0.0636
     32 H9         81.6886    5.1381   36.5702 H       1  <0>         0.0643
     33 H10        79.8671    6.9680   37.0778 H       1  <0>         0.0694
     34 H11        85.2761    3.4735   32.6790 H       1  <0>         0.0641
@<TRIPOS>BOND
     1    16    22    1
     2     8    20    1
     3     8    21    1
     4    21    22    1
     5    14    22    2
     6    19    20    2
     7    18    21    2
     8    18    19    1
     9     4    18    1
    10     4    12    2
    11     4     6    1
    12     4    10    2
    13    13    15   ar
    14    15    17   ar
    15     6    17    1
    16    11    13   ar
    17    17    23   ar
    18     9    11   ar
    19     9    23   ar
    20     1     9    1
    21     5     7    2
    22     1     5    1
    23     1     2    1
    24     3     5    1
    25     1    24    1
    26     2    25    1
    27     2    26    1
    28     2    27    1
    29     6    28    1
    30    11    29    1
    31    13    30    1
    32    15    31    1
    33    19    32    1
    34    20    33    1
    35    23    34    1
@<TRIPOS>SUBSTRUCTURE
     1 <0>         1 TEMP              0 ****  ****    0 ROOT

