
##########                                Name:               *****
##########                    Molecular_Weight:             355.372
##########                DOCK_Rotatable_Bonds:                   6
##########                       Formal_Charge:                  -1
##########                     HBond_Acceptors:                  10
##########                        HBond_Donors:                   4
##########                         Heavy_Atoms:                  23
##########                            HA_RMSDs:              10.312
##########                            HA_RMSDh:              10.058
##########                            HA_RMSDm:               9.199
##########                          Grid_Score:            3.013153
##########                     Grid_vdw_energy:          -24.224318
##########                      Grid_es_energy:           27.237471
##########           Internal_energy_repulsive:            8.872709

@<TRIPOS>MOLECULE
*****
 34 35 1 0 0
SMALL
USER_CHARGES


@<TRIPOS>ATOM
      1 C1         82.3766    4.2377   24.9445 C.3     1  <0>         0.0419
      2 N1         81.3218    4.8578   24.1649 N.4     1  <0>         0.2283
      3 O1         80.5393    3.8688   26.4019 O.co2   1  <0>        -0.5439
      4 S1         86.5476    6.7993   21.7453 S.o2    1  <0>         0.0735
      5 C2         81.7905    3.8101   26.2696 C.2     1  <0>         0.0942
      6 N2         86.6156    5.9563   23.1177 N.pl3   1  <0>        -0.2162
      7 O2         82.5200    3.3789   27.1830 O.co2   1  <0>        -0.5439
      8 S2         87.0918   10.7323   22.7989 S.3     1  <0>        -0.0935
      9 C3         83.5449    5.1677   24.9989 C.ar    1  <0>         0.0076
     10 O3         85.3497    6.4197   21.0587 O.2     1  <0>        -0.1499
     11 C4         83.6282    6.1444   25.9806 C.ar    1  <0>        -0.0528
     12 O4         87.6989    6.4701   20.9631 O.2     1  <0>        -0.1499
     13 C5         84.6975    7.0271   26.0221 C.ar    1  <0>        -0.0595
     14 O5         89.2270    7.5070   23.0741 O.co2   1  <0>        -0.5440
     15 C6         85.6918    6.9519   25.0508 C.ar    1  <0>        -0.0393
     16 O6         89.4598    9.4906   23.9993 O.co2   1  <0>        -0.5440
     17 C7         85.6126    5.9998   24.0373 C.ar    1  <0>         0.0485
     18 C8         86.5233    8.4308   22.0495 C.2     1  <0>         0.1243
     19 C9         85.4494    9.2291   21.6376 C.2     1  <0>        -0.0274
     20 C10        85.6185   10.5728   21.9889 C.2     1  <0>        -0.0218
     21 C11        87.5310    9.1153   22.7123 C.2     1  <0>         0.0610
     22 C12        88.8186    8.6652   23.2997 C.2     1  <0>         0.0801
     23 C13        84.5356    5.1067   24.0103 C.ar    1  <0>        -0.0304
     24 H1         82.7762    3.3176   24.4930 H       1  <0>         0.0968
     25 H2         80.5337    4.2438   24.1216 H       1  <0>         0.2004
     26 H3         81.0505    5.7182   24.5964 H       1  <0>         0.2004
     27 H4         81.6542    5.0391   23.2394 H       1  <0>         0.2004
     28 H5         86.6837    4.9979   22.8405 H       1  <0>         0.1737
     29 H6         82.8484    6.2187   26.7241 H       1  <0>         0.0622
     30 H7         84.7582    7.7693   26.8044 H       1  <0>         0.0618
     31 H8         86.5280    7.6346   25.0832 H       1  <0>         0.0636
     32 H9         84.5876    8.8503   21.1084 H       1  <0>         0.0643
     33 H10        84.9242   11.3727   21.7778 H       1  <0>         0.0694
     34 H11        84.4679    4.3683   23.2250 H       1  <0>         0.0641
@<TRIPOS>BOND
     1    16    22    1
     2     8    20    1
     3     8    21    1
     4    21    22    1
     5    14    22    2
     6    19    20    2
     7    18    21    2
     8    18    19    1
     9     4    18    1
    10     4    12    2
    11     4     6    1
    12     4    10    2
    13    13    15   ar
    14    15    17   ar
    15     6    17    1
    16    11    13   ar
    17    17    23   ar
    18     9    11   ar
    19     9    23   ar
    20     1     9    1
    21     5     7    2
    22     1     5    1
    23     1     2    1
    24     3     5    1
    25     1    24    1
    26     2    25    1
    27     2    26    1
    28     2    27    1
    29     6    28    1
    30    11    29    1
    31    13    30    1
    32    15    31    1
    33    19    32    1
    34    20    33    1
    35    23    34    1
@<TRIPOS>SUBSTRUCTURE
     1 <0>         1 TEMP              0 ****  ****    0 ROOT

