
##########                                Name:               *****
##########                    Molecular_Weight:             355.372
##########                DOCK_Rotatable_Bonds:                   6
##########                       Formal_Charge:                  -1
##########                     HBond_Acceptors:                  10
##########                        HBond_Donors:                   4
##########                         Heavy_Atoms:                  23
##########                            HA_RMSDs:               8.414
##########                            HA_RMSDh:               6.590
##########                            HA_RMSDm:               5.023
##########                          Grid_Score:            4.756037
##########                     Grid_vdw_energy:          -28.067511
##########                      Grid_es_energy:           32.823547
##########           Internal_energy_repulsive:            6.224806

@<TRIPOS>MOLECULE
*****
 34 35 1 0 0
SMALL
USER_CHARGES


@<TRIPOS>ATOM
      1 C1         82.8597    4.9730   29.3458 C.3     1  <0>         0.0419
      2 N1         83.2542    3.7454   28.6808 N.4     1  <0>         0.2283
      3 O1         82.2678    5.5810   27.1286 O.co2   1  <0>        -0.5439
      4 S1         84.0606    4.7384   34.9527 S.o2    1  <0>         0.0735
      5 C2         82.5425    6.0000   28.2843 C.2     1  <0>         0.0942
      6 N2         84.2872    5.9808   33.9508 N.pl3   1  <0>        -0.2162
      7 O2         82.5170    7.2155   28.5568 O.co2   1  <0>        -0.5439
      8 S2         87.7752    3.9054   36.4965 S.3     1  <0>        -0.0935
      9 C3         83.9129    5.3417   30.3395 C.ar    1  <0>         0.0076
     10 O3         83.3611    3.7180   34.2316 O.2     1  <0>        -0.1499
     11 C4         85.2383    5.4741   29.9515 C.ar    1  <0>        -0.0528
     12 O4         83.2780    5.1957   36.0592 O.2     1  <0>        -0.1499
     13 C5         86.2250    5.7917   30.8733 C.ar    1  <0>        -0.0595
     14 O5         85.5052    6.9558   36.7828 O.co2   1  <0>        -0.5440
     15 C6         85.8887    5.9562   32.2142 C.ar    1  <0>        -0.0393
     16 O6         87.6733    6.9163   36.4053 O.co2   1  <0>        -0.5440
     17 C7         84.5695    5.7970   32.6317 C.ar    1  <0>         0.0485
     18 C8         85.5101    4.1420   35.4988 C.2     1  <0>         0.1243
     19 C9         85.8335    2.7866   35.3633 C.2     1  <0>        -0.0274
     20 C10        87.0966    2.4852   35.8843 C.2     1  <0>        -0.0218
     21 C11        86.4866    4.9101   36.1151 C.2     1  <0>         0.0610
     22 C12        86.5489    6.3549   36.4530 C.2     1  <0>         0.0801
     23 C13        83.5796    5.4872   31.6924 C.ar    1  <0>        -0.0304
     24 H1         81.9396    4.8764   29.9409 H       1  <0>         0.0968
     25 H2         82.5561    3.4885   28.0126 H       1  <0>         0.2004
     26 H3         84.1272    3.8853   28.2135 H       1  <0>         0.2004
     27 H4         83.3516    3.0161   29.3580 H       1  <0>         0.2004
     28 H5         83.4338    6.5015   33.9722 H       1  <0>         0.1737
     29 H6         85.5061    5.3275   28.9155 H       1  <0>         0.0622
     30 H7         87.2493    5.9108   30.5524 H       1  <0>         0.0618
     31 H8         86.6539    6.2082   32.9335 H       1  <0>         0.0636
     32 H9         85.1815    2.0559   34.9080 H       1  <0>         0.0643
     33 H10        87.5594    1.5094   35.8933 H       1  <0>         0.0694
     34 H11        82.5556    5.3600   32.0113 H       1  <0>         0.0641
@<TRIPOS>BOND
     1    16    22    1
     2     8    20    1
     3     8    21    1
     4    21    22    1
     5    14    22    2
     6    19    20    2
     7    18    21    2
     8    18    19    1
     9     4    18    1
    10     4    12    2
    11     4     6    1
    12     4    10    2
    13    13    15   ar
    14    15    17   ar
    15     6    17    1
    16    11    13   ar
    17    17    23   ar
    18     9    11   ar
    19     9    23   ar
    20     1     9    1
    21     5     7    2
    22     1     5    1
    23     1     2    1
    24     3     5    1
    25     1    24    1
    26     2    25    1
    27     2    26    1
    28     2    27    1
    29     6    28    1
    30    11    29    1
    31    13    30    1
    32    15    31    1
    33    19    32    1
    34    20    33    1
    35    23    34    1
@<TRIPOS>SUBSTRUCTURE
     1 <0>         1 TEMP              0 ****  ****    0 ROOT

