
##########                                Name:      NVB_A1133_3LPB
##########                    Molecular_Weight:              465.53
##########                DOCK_Rotatable_Bonds:                   7
##########                       Formal_Charge:        -0.000200078
##########                     HBond_Acceptors:                   9
##########                        HBond_Donors:                   1
##########                         Heavy_Atoms:                  33
##########                            HA_RMSDs:               0.217
##########                            HA_RMSDh:               0.217
##########                            HA_RMSDm:               0.217
##########                          Grid_Score:          -68.548027
##########                     Grid_vdw_energy:          -65.549004
##########                      Grid_es_energy:           -2.999023
##########           Internal_energy_repulsive:           14.743320

@<TRIPOS>MOLECULE
NVB_A1133_3LPB
 56 59 1 0 0
SMALL
USER_CHARGES


@<TRIPOS>ATOM
      1 C1        110.2844   64.7562    6.5945 C.3     1  <0>         0.0151
      2 C2        115.0680   69.6294   16.5339 C.3     1  <0>         0.0431
      3 C3        111.1526   65.9693   11.7017 C.3     1  <0>         0.0431
      4 C4        112.0494   66.0673   16.3320 C.3     1  <0>         0.0432
      5 C5        118.9175   66.7152    7.5121 C.ar    1  <0>        -0.0590
      6 C6        117.7198   65.9967    7.3653 C.ar    1  <0>        -0.0519
      7 C7        119.1019   67.4878    8.6705 C.ar    1  <0>        -0.0342
      8 C8        114.9099   64.4397    9.2104 C.ar    1  <0>        -0.0521
      9 C9        114.8992   65.2138    6.8861 C.ar    1  <0>        -0.0521
     10 C10       113.7507   63.7056    8.9636 C.ar    1  <0>        -0.0345
     11 C11       113.7548   64.4452    6.6299 C.ar    1  <0>        -0.0345
     12 C12       115.3756   67.9570   13.9451 C.ar    1  <0>        -0.0198
     13 C13       113.8805   67.0023   12.3238 C.ar    1  <0>        -0.0198
     14 C14       117.3731   68.2869   11.7647 C.ar    1  <0>         0.0542
     15 C15       115.4863   65.2150    8.1675 C.ar    1  <0>        -0.0157
     16 C16       113.1837   63.6865    7.6804 C.ar    1  <0>         0.1082
     17 C17       116.7211   66.0165    8.3724 C.ar    1  <0>         0.0096
     18 C18       118.1092   67.5154    9.6724 C.ar    1  <0>         0.0898
     19 C19       115.1144   67.5348   12.6385 C.ar    1  <0>         0.0069
     20 C20       114.3582   67.8800   14.9301 C.ar    1  <0>         0.1088
     21 C21       112.8599   66.9449   13.2904 C.ar    1  <0>         0.1088
     22 C22       116.1883   67.5671   11.6088 C.ar    1  <0>         0.0899
     23 C23       116.9383   66.7529    9.5392 C.ar    1  <0>         0.0975
     24 C24       113.1127   67.3826   14.5934 C.ar    1  <0>         0.1357
     25 N1        118.3009   68.2451   10.7895 N.ar    1  <0>        -0.2513
     26 N2        115.9954   66.7987   10.5064 N.ar    1  <0>        -0.2430
     27 N3        110.9316   63.5011    6.2536 N.pl3   1  <0>        -0.2505
     28 O1        110.8372   62.7182    8.5250 O.2     1  <0>        -0.1503
     29 O2        112.1363   61.4327    6.8769 O.2     1  <0>        -0.1503
     30 O3        114.5523   68.3256   16.2299 O.3     1  <0>        -0.3452
     31 O4        111.5875   66.4606   13.0052 O.3     1  <0>        -0.3452
     32 O5        112.1298   67.2963   15.5659 O.3     1  <0>        -0.3430
     33 S1        111.7351   62.6955    7.4003 S.o2    1  <0>         0.0680
     34 H1        109.7876   65.1670    5.7032 H       1  <0>         0.0439
     35 H2        109.5373   64.5811    7.3826 H       1  <0>         0.0439
     36 H3        111.0385   65.4710    6.9559 H       1  <0>         0.0439
     37 H4        115.1330   69.7534   17.6249 H       1  <0>         0.0529
     38 H5        116.0695   69.7396   16.0924 H       1  <0>         0.0529
     39 H6        114.3972   70.3952   16.1173 H       1  <0>         0.0529
     40 H7        110.1019   65.6492   11.7618 H       1  <0>         0.0529
     41 H8        111.2489   66.7727   10.9564 H       1  <0>         0.0529
     42 H9        111.7793   65.1157   11.4040 H       1  <0>         0.0529
     43 H10       111.2292   66.1421   17.0611 H       1  <0>         0.0529
     44 H11       111.8598   65.2234   15.6523 H       1  <0>         0.0529
     45 H12       112.9985   65.9040   16.8636 H       1  <0>         0.0529
     46 H13       119.6814   66.6746    6.7496 H       1  <0>         0.0618
     47 H14       117.5559   65.4179    6.4683 H       1  <0>         0.0624
     48 H15       120.0074   68.0630    8.7947 H       1  <0>         0.0639
     49 H16       115.3676   64.4195   10.1884 H       1  <0>         0.0624
     50 H17       115.3336   65.8088    6.0963 H       1  <0>         0.0624
     51 H18       113.2868   63.1487    9.7643 H       1  <0>         0.0637
     52 H19       113.3145   64.4319    5.6439 H       1  <0>         0.0637
     53 H20       116.3510   68.3414   14.2042 H       1  <0>         0.0651
     54 H21       113.6972   66.6267   11.3279 H       1  <0>         0.0651
     55 H22       117.5443   68.8708   12.6569 H       1  <0>         0.0851
     56 H23       110.2088   62.8890    5.9326 H       1  <0>         0.1669
@<TRIPOS>BOND
     1     1    27    1
     2     2    30    1
     3     3    31    1
     4     4    32    1
     5     5     6   ar
     6     5     7   ar
     7     6    17   ar
     8     7    18   ar
     9     8    10   ar
    10     8    15   ar
    11     9    11   ar
    12     9    15   ar
    13    10    16   ar
    14    11    16   ar
    15    12    19   ar
    16    12    20   ar
    17    13    19   ar
    18    13    21   ar
    19    14    22   ar
    20    14    25   ar
    21    15    17    1
    22    16    33    1
    23    17    23   ar
    24    18    23   ar
    25    18    25   ar
    26    19    22    1
    27    20    24   ar
    28    20    30    1
    29    21    24   ar
    30    21    31    1
    31    22    26   ar
    32    23    26   ar
    33    24    32    1
    34    27    33    1
    35    28    33    2
    36    29    33    2
    37     1    34    1
    38     1    35    1
    39     1    36    1
    40     2    37    1
    41     2    38    1
    42     2    39    1
    43     3    40    1
    44     3    41    1
    45     3    42    1
    46     4    43    1
    47     4    44    1
    48     4    45    1
    49     5    46    1
    50     6    47    1
    51     7    48    1
    52     8    49    1
    53     9    50    1
    54    10    51    1
    55    11    52    1
    56    12    53    1
    57    13    54    1
    58    14    55    1
    59    27    56    1
@<TRIPOS>SUBSTRUCTURE
     1 <0>         1 TEMP              0 ****  ****    0 ROOT

