
##########                                Name:      NVB_A1133_3LPB
##########                    Molecular_Weight:              465.53
##########                DOCK_Rotatable_Bonds:                   7
##########                       Formal_Charge:        -0.000200078
##########                     HBond_Acceptors:                   9
##########                        HBond_Donors:                   1
##########                         Heavy_Atoms:                  33
##########                            HA_RMSDs:               0.344
##########                            HA_RMSDh:               0.344
##########                            HA_RMSDm:               0.344
##########                          Grid_Score:          -66.507133
##########                     Grid_vdw_energy:          -64.326653
##########                      Grid_es_energy:           -2.180478
##########           Internal_energy_repulsive:           13.422270

@<TRIPOS>MOLECULE
NVB_A1133_3LPB
 56 59 1 0 0
SMALL
USER_CHARGES


@<TRIPOS>ATOM
      1 C1        110.0182   64.6371    7.3222 C.3     1  <0>         0.0151
      2 C2        115.0563   69.2967   16.6255 C.3     1  <0>         0.0431
      3 C3        111.0161   65.8999   11.5784 C.3     1  <0>         0.0431
      4 C4        111.8487   65.9416   16.3364 C.3     1  <0>         0.0432
      5 C5        118.9256   66.7040    7.6721 C.ar    1  <0>        -0.0590
      6 C6        117.7376   65.9812    7.4751 C.ar    1  <0>        -0.0519
      7 C7        119.0668   67.4604    8.8471 C.ar    1  <0>        -0.0342
      8 C8        114.9244   64.3187    9.1782 C.ar    1  <0>        -0.0521
      9 C9        114.8909   65.2558    6.9149 C.ar    1  <0>        -0.0521
     10 C10       113.7761   63.5850    8.8836 C.ar    1  <0>        -0.0345
     11 C11       113.7580   64.4886    6.6084 C.ar    1  <0>        -0.0345
     12 C12       115.1662   67.8278   14.0023 C.ar    1  <0>        -0.0198
     13 C13       113.7292   66.8958   12.3165 C.ar    1  <0>        -0.0198
     14 C14       117.2318   68.2043   11.8935 C.ar    1  <0>         0.0542
     15 C15       115.4835   65.1756    8.1913 C.ar    1  <0>        -0.0157
     16 C16       113.2038   63.6478    7.6041 C.ar    1  <0>         0.1082
     17 C17       116.7060   65.9806    8.4487 C.ar    1  <0>         0.0096
     18 C18       118.0414   67.4678    9.8158 C.ar    1  <0>         0.0898
     19 C19       114.9500   67.4270   12.6809 C.ar    1  <0>         0.0069
     20 C20       114.1172   67.7306   14.9517 C.ar    1  <0>         0.1088
     21 C21       112.6775   66.8186   13.2477 C.ar    1  <0>         0.1088
     22 C22       116.0571   67.4804   11.6879 C.ar    1  <0>         0.0899
     23 C23       116.8801   66.7010    9.6327 C.ar    1  <0>         0.0975
     24 C24       112.8854   67.2349   14.5655 C.ar    1  <0>         0.1357
     25 N1        118.1917   68.1820   10.9492 N.ar    1  <0>        -0.2513
     26 N2        115.9054   66.7272   10.5686 N.ar    1  <0>        -0.2430
     27 N3        110.7605   63.6786    6.5218 N.pl3   1  <0>        -0.2505
     28 O1        111.0653   62.2862    8.4581 O.2     1  <0>        -0.1503
     29 O2        112.1325   61.6286    6.3403 O.2     1  <0>        -0.1503
     30 O3        114.2665   68.1547   16.2645 O.3     1  <0>        -0.3452
     31 O4        111.4171   66.3350   12.9124 O.3     1  <0>        -0.3452
     32 O5        111.8713   67.1288   15.5034 O.3     1  <0>        -0.3430
     33 S1        111.7703   62.6555    7.2589 S.o2    1  <0>         0.0680
     34 H1        109.3836   65.2504    6.6656 H       1  <0>         0.0439
     35 H2        109.3865   64.0998    8.0449 H       1  <0>         0.0439
     36 H3        110.7225   65.2869    7.8624 H       1  <0>         0.0439
     37 H4        115.0244   69.4353   17.7163 H       1  <0>         0.0529
     38 H5        116.0971   69.1382   16.3067 H       1  <0>         0.0529
     39 H6        114.6533   70.1925   16.1303 H       1  <0>         0.0529
     40 H7        109.9680   65.5667   11.6005 H       1  <0>         0.0529
     41 H8        111.1196   66.7378   10.8731 H       1  <0>         0.0529
     42 H9        111.6586   65.0674   11.2558 H       1  <0>         0.0529
     43 H10       110.9952   65.9947   17.0283 H       1  <0>         0.0529
     44 H11       111.7502   65.0495   15.7006 H       1  <0>         0.0529
     45 H12       112.7839   65.8802   16.9124 H       1  <0>         0.0529
     46 H13       119.7144   66.6788    6.9349 H       1  <0>         0.0618
     47 H14       117.6070   65.4148    6.5648 H       1  <0>         0.0624
     48 H15       119.9643   68.0387    9.0097 H       1  <0>         0.0639
     49 H16       115.3866   64.2365   10.1509 H       1  <0>         0.0624
     50 H17       115.3121   65.9125    6.1681 H       1  <0>         0.0624
     51 H18       113.3248   62.9650    9.6441 H       1  <0>         0.0637
     52 H19       113.3136   64.5382    5.6253 H       1  <0>         0.0637
     53 H20       116.1310   68.2109   14.3000 H       1  <0>         0.0651
     54 H21       113.5803   66.5366   11.3089 H       1  <0>         0.0651
     55 H22       117.3699   68.7759   12.7994 H       1  <0>         0.0851
     56 H23       110.0800   63.1151    6.0534 H       1  <0>         0.1669
@<TRIPOS>BOND
     1     1    27    1
     2     2    30    1
     3     3    31    1
     4     4    32    1
     5     5     6   ar
     6     5     7   ar
     7     6    17   ar
     8     7    18   ar
     9     8    10   ar
    10     8    15   ar
    11     9    11   ar
    12     9    15   ar
    13    10    16   ar
    14    11    16   ar
    15    12    19   ar
    16    12    20   ar
    17    13    19   ar
    18    13    21   ar
    19    14    22   ar
    20    14    25   ar
    21    15    17    1
    22    16    33    1
    23    17    23   ar
    24    18    23   ar
    25    18    25   ar
    26    19    22    1
    27    20    24   ar
    28    20    30    1
    29    21    24   ar
    30    21    31    1
    31    22    26   ar
    32    23    26   ar
    33    24    32    1
    34    27    33    1
    35    28    33    2
    36    29    33    2
    37     1    34    1
    38     1    35    1
    39     1    36    1
    40     2    37    1
    41     2    38    1
    42     2    39    1
    43     3    40    1
    44     3    41    1
    45     3    42    1
    46     4    43    1
    47     4    44    1
    48     4    45    1
    49     5    46    1
    50     6    47    1
    51     7    48    1
    52     8    49    1
    53     9    50    1
    54    10    51    1
    55    11    52    1
    56    12    53    1
    57    13    54    1
    58    14    55    1
    59    27    56    1
@<TRIPOS>SUBSTRUCTURE
     1 <0>         1 TEMP              0 ****  ****    0 ROOT

