
##########                                Name:      NVB_A1133_3LPB
##########                    Molecular_Weight:              465.53
##########                DOCK_Rotatable_Bonds:                   7
##########                       Formal_Charge:        -0.000200078
##########                     HBond_Acceptors:                   9
##########                        HBond_Donors:                   1
##########                         Heavy_Atoms:                  33
##########                            HA_RMSDs:               0.349
##########                            HA_RMSDh:               0.349
##########                            HA_RMSDm:               0.349
##########                          Grid_Score:          -67.555016
##########                     Grid_vdw_energy:          -65.162476
##########                      Grid_es_energy:           -2.392537
##########           Internal_energy_repulsive:           14.776785

@<TRIPOS>MOLECULE
NVB_A1133_3LPB
 56 59 1 0 0
SMALL
USER_CHARGES


@<TRIPOS>ATOM
      1 C1        110.5924   64.7265    6.6053 C.3     1  <0>         0.0151
      2 C2        115.1887   68.9761   16.6105 C.3     1  <0>         0.0431
      3 C3        111.0143   65.9359   11.4169 C.3     1  <0>         0.0431
      4 C4        111.5709   65.7418   15.8482 C.3     1  <0>         0.0432
      5 C5        118.9718   66.6799    7.5559 C.ar    1  <0>        -0.0590
      6 C6        117.7972   65.9341    7.3654 C.ar    1  <0>        -0.0519
      7 C7        119.0973   67.4526    8.7221 C.ar    1  <0>        -0.0342
      8 C8        114.9738   64.2898    9.1014 C.ar    1  <0>        -0.0521
      9 C9        115.0021   65.1033    6.7907 C.ar    1  <0>        -0.0521
     10 C10       113.8410   63.5303    8.8125 C.ar    1  <0>        -0.0345
     11 C11       113.8851   64.3098    6.4923 C.ar    1  <0>        -0.0345
     12 C12       115.2115   67.6906   13.8928 C.ar    1  <0>        -0.0198
     13 C13       113.7258   66.9539   12.1534 C.ar    1  <0>        -0.0198
     14 C14       117.2431   68.2005   11.7559 C.ar    1  <0>         0.0542
     15 C15       115.5560   65.0976    8.0868 C.ar    1  <0>        -0.0157
     16 C16       113.3075   63.5187    7.5149 C.ar    1  <0>         0.1082
     17 C17       116.7637   65.9270    8.3370 C.ar    1  <0>         0.0096
     18 C18       118.0698   67.4536    9.6887 C.ar    1  <0>         0.0898
     19 C19       114.9736   67.3926   12.5481 C.ar    1  <0>         0.0069
     20 C20       114.1590   67.5859   14.8375 C.ar    1  <0>         0.1088
     21 C21       112.6717   66.8705   13.0813 C.ar    1  <0>         0.1088
     22 C22       116.0817   67.4536   11.5567 C.ar    1  <0>         0.0899
     23 C23       116.9225   66.6644    9.5126 C.ar    1  <0>         0.0975
     24 C24       112.9021   67.1846   14.4236 C.ar    1  <0>         0.1357
     25 N1        118.2052   68.1838   10.8137 N.ar    1  <0>        -0.2513
     26 N2        115.9456   66.6847   10.4462 N.ar    1  <0>        -0.2430
     27 N3        110.9923   63.3944    6.1858 N.pl3   1  <0>        -0.2505
     28 O1        111.0575   62.3307    8.3411 O.2     1  <0>        -0.1503
     29 O2        112.3231   61.3307    6.4826 O.2     1  <0>        -0.1503
     30 O3        114.3313   67.9112   16.1755 O.3     1  <0>        -0.3452
     31 O4        111.3869   66.4793   12.7191 O.3     1  <0>        -0.3452
     32 O5        111.8840   67.0698   15.3560 O.3     1  <0>        -0.3430
     33 S1        111.8931   62.4955    7.1809 S.o2    1  <0>         0.0680
     34 H1        109.9884   65.1947    5.8140 H       1  <0>         0.0439
     35 H2        109.9974   64.6570    7.5278 H       1  <0>         0.0439
     36 H3        111.4886   65.3365    6.7917 H       1  <0>         0.0439
     37 H4        115.1631   69.0431   17.7081 H       1  <0>         0.0529
     38 H5        116.2185   68.7761   16.2795 H       1  <0>         0.0529
     39 H6        114.8421   69.9260   16.1772 H       1  <0>         0.0529
     40 H7        109.9371   65.7133   11.4065 H       1  <0>         0.0529
     41 H8        111.2438   66.6728   10.6330 H       1  <0>         0.0529
     42 H9        111.5813   65.0122   11.2293 H       1  <0>         0.0529
     43 H10       110.7489   65.8044   16.5764 H       1  <0>         0.0529
     44 H11       111.2673   65.1013   15.0070 H       1  <0>         0.0529
     45 H12       112.4592   65.3122   16.3344 H       1  <0>         0.0529
     46 H13       119.7626   66.6598    6.8206 H       1  <0>         0.0618
     47 H14       117.6784   65.3547    6.4617 H       1  <0>         0.0624
     48 H15       119.9842   68.0485    8.8795 H       1  <0>         0.0639
     49 H16       115.4067   64.2645   10.0906 H       1  <0>         0.0624
     50 H17       115.4407   65.7228    6.0225 H       1  <0>         0.0624
     51 H18       113.3716   62.9479    9.5916 H       1  <0>         0.0637
     52 H19       113.4706   64.3022    5.4950 H       1  <0>         0.0637
     53 H20       116.1957   68.0002   14.2120 H       1  <0>         0.0651
     54 H21       113.5575   66.6725   11.1244 H       1  <0>         0.0651
     55 H22       117.3692   68.7852   12.6551 H       1  <0>         0.0851
     56 H23       110.1477   62.8822    6.0297 H       1  <0>         0.1669
@<TRIPOS>BOND
     1     1    27    1
     2     2    30    1
     3     3    31    1
     4     4    32    1
     5     5     6   ar
     6     5     7   ar
     7     6    17   ar
     8     7    18   ar
     9     8    10   ar
    10     8    15   ar
    11     9    11   ar
    12     9    15   ar
    13    10    16   ar
    14    11    16   ar
    15    12    19   ar
    16    12    20   ar
    17    13    19   ar
    18    13    21   ar
    19    14    22   ar
    20    14    25   ar
    21    15    17    1
    22    16    33    1
    23    17    23   ar
    24    18    23   ar
    25    18    25   ar
    26    19    22    1
    27    20    24   ar
    28    20    30    1
    29    21    24   ar
    30    21    31    1
    31    22    26   ar
    32    23    26   ar
    33    24    32    1
    34    27    33    1
    35    28    33    2
    36    29    33    2
    37     1    34    1
    38     1    35    1
    39     1    36    1
    40     2    37    1
    41     2    38    1
    42     2    39    1
    43     3    40    1
    44     3    41    1
    45     3    42    1
    46     4    43    1
    47     4    44    1
    48     4    45    1
    49     5    46    1
    50     6    47    1
    51     7    48    1
    52     8    49    1
    53     9    50    1
    54    10    51    1
    55    11    52    1
    56    12    53    1
    57    13    54    1
    58    14    55    1
    59    27    56    1
@<TRIPOS>SUBSTRUCTURE
     1 <0>         1 TEMP              0 ****  ****    0 ROOT

