
##########                                Name:      NVB_A1133_3LPB
##########                    Molecular_Weight:              465.53
##########                DOCK_Rotatable_Bonds:                   7
##########                       Formal_Charge:        -0.000200078
##########                     HBond_Acceptors:                   9
##########                        HBond_Donors:                   1
##########                         Heavy_Atoms:                  33
##########                            HA_RMSDs:               0.826
##########                            HA_RMSDh:               0.826
##########                            HA_RMSDm:               0.784
##########                          Grid_Score:          -66.289154
##########                     Grid_vdw_energy:          -64.995064
##########                      Grid_es_energy:           -1.294093
##########           Internal_energy_repulsive:           12.503351

@<TRIPOS>MOLECULE
NVB_A1133_3LPB
 56 59 1 0 0
SMALL
USER_CHARGES


@<TRIPOS>ATOM
      1 C1        110.0226   64.3559    6.6361 C.3     1  <0>         0.0151
      2 C2        114.1206   68.9163   16.8402 C.3     1  <0>         0.0431
      3 C3        110.6565   65.8818   11.1693 C.3     1  <0>         0.0431
      4 C4        110.9767   65.5399   15.9824 C.3     1  <0>         0.0432
      5 C5        118.9874   66.9346    8.2695 C.ar    1  <0>        -0.0590
      6 C6        117.8566   66.1849    7.9065 C.ar    1  <0>        -0.0519
      7 C7        118.9661   67.6408    9.4834 C.ar    1  <0>        -0.0342
      8 C8        114.9833   64.2993    9.1735 C.ar    1  <0>        -0.0521
      9 C9        115.0648   65.4612    7.0182 C.ar    1  <0>        -0.0521
     10 C10       113.9009   63.5474    8.7190 C.ar    1  <0>        -0.0345
     11 C11       114.0004   64.6778    6.5498 C.ar    1  <0>        -0.0345
     12 C12       114.4926   67.6469   14.1644 C.ar    1  <0>        -0.0198
     13 C13       113.2892   66.7584   12.2836 C.ar    1  <0>        -0.0198
     14 C14       116.7693   68.1880   12.3252 C.ar    1  <0>         0.0542
     15 C15       115.5660   65.2779    8.3228 C.ar    1  <0>        -0.0157
     16 C16       113.4211   63.7146    7.4111 C.ar    1  <0>         0.1082
     17 C17       116.7212   66.1080    8.7533 C.ar    1  <0>         0.0096
     18 C18       117.8371   67.5723   10.3263 C.ar    1  <0>         0.0898
     19 C19       114.4420   67.3052   12.8101 C.ar    1  <0>         0.0069
     20 C20       113.3460   67.4742   14.9810 C.ar    1  <0>         0.1088
     21 C21       112.1413   66.6064   13.0826 C.ar    1  <0>         0.1088
     22 C22       115.6527   67.4381   11.9551 C.ar    1  <0>         0.0899
     23 C23       116.7327   66.7789    9.9784 C.ar    1  <0>         0.0975
     24 C24       112.1836   66.9636   14.4332 C.ar    1  <0>         0.1357
     25 N1        117.8309   68.2385   11.4982 N.ar    1  <0>        -0.2513
     26 N2        115.6572   66.7323   10.7954 N.ar    1  <0>        -0.2430
     27 N3        111.1544   63.7087    5.9955 N.pl3   1  <0>        -0.2505
     28 O1        111.2136   62.3001    7.9432 O.2     1  <0>        -0.1503
     29 O2        112.5823   61.6890    5.9914 O.2     1  <0>        -0.1503
     30 O3        113.3304   67.8376   16.3201 O.3     1  <0>        -0.3452
     31 O4        110.9443   66.1045   12.5826 O.3     1  <0>        -0.3452
     32 O5        111.0733   66.7834   15.2419 O.3     1  <0>        -0.3430
     33 S1        112.0722   62.6976    6.8586 S.o2    1  <0>         0.0680
     34 H1        109.5116   65.0052    5.9100 H       1  <0>         0.0439
     35 H2        109.3213   63.5910    7.0009 H       1  <0>         0.0439
     36 H3        110.3779   64.9616    7.4829 H       1  <0>         0.0439
     37 H4        113.9421   69.0143   17.9212 H       1  <0>         0.0529
     38 H5        115.1861   68.7092   16.6621 H       1  <0>         0.0529
     39 H6        113.8397   69.8527   16.3360 H       1  <0>         0.0529
     40 H7        109.6382   65.4800   11.0609 H       1  <0>         0.0529
     41 H8        110.7344   66.8345   10.6249 H       1  <0>         0.0529
     42 H9        111.3799   65.1633   10.7568 H       1  <0>         0.0529
     43 H10       110.0509   65.5372   16.5763 H       1  <0>         0.0529
     44 H11       110.9633   64.6944   15.2789 H       1  <0>         0.0529
     45 H12       111.8429   65.4449   16.6537 H       1  <0>         0.0529
     46 H13       119.8558   66.9675    7.6281 H       1  <0>         0.0618
     47 H14       117.8514   65.6567    6.9644 H       1  <0>         0.0624
     48 H15       119.8177   68.2387    9.7727 H       1  <0>         0.0639
     49 H16       115.3769   64.1393   10.1664 H       1  <0>         0.0624
     50 H17       115.5035   66.2098    6.3751 H       1  <0>         0.0624
     51 H18       113.4293   62.8324    9.3769 H       1  <0>         0.0637
     52 H19       113.6270   64.8074    5.5447 H       1  <0>         0.0637
     53 H20       115.4038   68.0420   14.5886 H       1  <0>         0.0651
     54 H21       113.2683   66.4449   11.2503 H       1  <0>         0.0651
     55 H22       116.7822   68.7219   13.2639 H       1  <0>         0.0851
     56 H23       110.7815   63.1738    5.2373 H       1  <0>         0.1669
@<TRIPOS>BOND
     1     1    27    1
     2     2    30    1
     3     3    31    1
     4     4    32    1
     5     5     6   ar
     6     5     7   ar
     7     6    17   ar
     8     7    18   ar
     9     8    10   ar
    10     8    15   ar
    11     9    11   ar
    12     9    15   ar
    13    10    16   ar
    14    11    16   ar
    15    12    19   ar
    16    12    20   ar
    17    13    19   ar
    18    13    21   ar
    19    14    22   ar
    20    14    25   ar
    21    15    17    1
    22    16    33    1
    23    17    23   ar
    24    18    23   ar
    25    18    25   ar
    26    19    22    1
    27    20    24   ar
    28    20    30    1
    29    21    24   ar
    30    21    31    1
    31    22    26   ar
    32    23    26   ar
    33    24    32    1
    34    27    33    1
    35    28    33    2
    36    29    33    2
    37     1    34    1
    38     1    35    1
    39     1    36    1
    40     2    37    1
    41     2    38    1
    42     2    39    1
    43     3    40    1
    44     3    41    1
    45     3    42    1
    46     4    43    1
    47     4    44    1
    48     4    45    1
    49     5    46    1
    50     6    47    1
    51     7    48    1
    52     8    49    1
    53     9    50    1
    54    10    51    1
    55    11    52    1
    56    12    53    1
    57    13    54    1
    58    14    55    1
    59    27    56    1
@<TRIPOS>SUBSTRUCTURE
     1 <0>         1 TEMP              0 ****  ****    0 ROOT

