
##########                                Name:      NVB_A1133_3LPB
##########                    Molecular_Weight:              465.53
##########                DOCK_Rotatable_Bonds:                   7
##########                       Formal_Charge:        -0.000200078
##########                     HBond_Acceptors:                   9
##########                        HBond_Donors:                   1
##########                         Heavy_Atoms:                  33
##########                            HA_RMSDs:               0.389
##########                            HA_RMSDh:               0.389
##########                            HA_RMSDm:               0.389
##########                          Grid_Score:          -66.975471
##########                     Grid_vdw_energy:          -64.210152
##########                      Grid_es_energy:           -2.765318
##########           Internal_energy_repulsive:           14.551410

@<TRIPOS>MOLECULE
NVB_A1133_3LPB
 56 59 1 0 0
SMALL
USER_CHARGES


@<TRIPOS>ATOM
      1 C1        110.1152   64.5587    6.2864 C.3     1  <0>         0.0151
      2 C2        115.0804   69.0335   16.7965 C.3     1  <0>         0.0431
      3 C3        110.9536   66.1074   11.5182 C.3     1  <0>         0.0431
      4 C4        111.3749   65.7915   15.8129 C.3     1  <0>         0.0432
      5 C5        118.9272   66.9052    7.7031 C.ar    1  <0>        -0.0590
      6 C6        117.7499   66.1694    7.4907 C.ar    1  <0>        -0.0519
      7 C7        119.0523   67.6484    8.8883 C.ar    1  <0>        -0.0342
      8 C8        114.9251   64.4808    9.1714 C.ar    1  <0>        -0.0521
      9 C9        114.9415   65.3807    6.8928 C.ar    1  <0>        -0.0521
     10 C10       113.7894   63.7344    8.8607 C.ar    1  <0>        -0.0345
     11 C11       113.8215   64.6006    6.5712 C.ar    1  <0>        -0.0345
     12 C12       115.1510   67.7776   14.0512 C.ar    1  <0>        -0.0198
     13 C13       113.6682   67.0881   12.2902 C.ar    1  <0>        -0.0198
     14 C14       117.1918   68.3297   11.9339 C.ar    1  <0>         0.0542
     15 C15       115.5029   65.3254    8.1845 C.ar    1  <0>        -0.0157
     16 C16       113.2485   63.7724    7.5666 C.ar    1  <0>         0.1082
     17 C17       116.7133   66.1431    8.4586 C.ar    1  <0>         0.0096
     18 C18       118.0218   67.6302    9.8515 C.ar    1  <0>         0.0898
     19 C19       114.9163   67.5127   12.6991 C.ar    1  <0>         0.0069
     20 C20       114.0951   67.6544   14.9899 C.ar    1  <0>         0.1088
     21 C21       112.6108   66.9865   13.2126 C.ar    1  <0>         0.1088
     22 C22       116.0278   67.5931   11.7129 C.ar    1  <0>         0.0899
     23 C23       116.8717   66.8506    9.6525 C.ar    1  <0>         0.0975
     24 C24       112.8381   67.2677   14.5626 C.ar    1  <0>         0.1357
     25 N1        118.1568   68.3319   10.9945 N.ar    1  <0>        -0.2513
     26 N2        115.8919   66.8523   10.5834 N.ar    1  <0>        -0.2430
     27 N3        111.1070   63.5410    5.9848 N.pl3   1  <0>        -0.2505
     28 O1        110.8533   62.8023    8.2588 O.2     1  <0>        -0.1503
     29 O2        112.2767   61.4949    6.7353 O.2     1  <0>        -0.1503
     30 O3        114.2644   67.9471   16.3357 O.3     1  <0>        -0.3452
     31 O4        111.3258   66.6088   12.8371 O.3     1  <0>        -0.3452
     32 O5        111.8166   67.1346   15.4889 O.3     1  <0>        -0.3430
     33 S1        111.8305   62.7646    7.2027 S.o2    1  <0>         0.0680
     34 H1        109.7268   64.9823    5.3485 H       1  <0>         0.0439
     35 H2        109.2886   64.1077    6.8550 H       1  <0>         0.0439
     36 H3        110.5794   65.3568    6.8845 H       1  <0>         0.0439
     37 H4        115.0607   69.0670   17.8958 H       1  <0>         0.0529
     38 H5        116.1150   68.8862   16.4529 H       1  <0>         0.0529
     39 H6        114.6915   69.9804   16.3939 H       1  <0>         0.0529
     40 H7        109.8760   65.8868   11.4999 H       1  <0>         0.0529
     41 H8        111.1849   66.8682   10.7581 H       1  <0>         0.0529
     42 H9        111.5193   65.1891   11.3020 H       1  <0>         0.0529
     43 H10       110.5655   65.8405   16.5561 H       1  <0>         0.0529
     44 H11       111.0066   65.2970   14.9019 H       1  <0>         0.0529
     45 H12       112.2178   65.2182   16.2263 H       1  <0>         0.0529
     46 H13       119.7202   66.8997    6.9699 H       1  <0>         0.0618
     47 H14       117.6315   65.6130    6.5727 H       1  <0>         0.0624
     48 H15       119.9413   68.2364    9.0630 H       1  <0>         0.0639
     49 H16       115.3637   64.4177   10.1563 H       1  <0>         0.0624
     50 H17       115.3767   66.0280    6.1458 H       1  <0>         0.0624
     51 H18       113.3235   63.1238    9.6200 H       1  <0>         0.0637
     52 H19       113.4013   64.6311    5.5768 H       1  <0>         0.0637
     53 H20       116.1353   68.0759   14.3808 H       1  <0>         0.0651
     54 H21       113.5022   66.8319   11.2542 H       1  <0>         0.0651
     55 H22       117.3176   68.8915   12.8476 H       1  <0>         0.0851
     56 H23       110.6389   62.8426    5.4434 H       1  <0>         0.1669
@<TRIPOS>BOND
     1     1    27    1
     2     2    30    1
     3     3    31    1
     4     4    32    1
     5     5     6   ar
     6     5     7   ar
     7     6    17   ar
     8     7    18   ar
     9     8    10   ar
    10     8    15   ar
    11     9    11   ar
    12     9    15   ar
    13    10    16   ar
    14    11    16   ar
    15    12    19   ar
    16    12    20   ar
    17    13    19   ar
    18    13    21   ar
    19    14    22   ar
    20    14    25   ar
    21    15    17    1
    22    16    33    1
    23    17    23   ar
    24    18    23   ar
    25    18    25   ar
    26    19    22    1
    27    20    24   ar
    28    20    30    1
    29    21    24   ar
    30    21    31    1
    31    22    26   ar
    32    23    26   ar
    33    24    32    1
    34    27    33    1
    35    28    33    2
    36    29    33    2
    37     1    34    1
    38     1    35    1
    39     1    36    1
    40     2    37    1
    41     2    38    1
    42     2    39    1
    43     3    40    1
    44     3    41    1
    45     3    42    1
    46     4    43    1
    47     4    44    1
    48     4    45    1
    49     5    46    1
    50     6    47    1
    51     7    48    1
    52     8    49    1
    53     9    50    1
    54    10    51    1
    55    11    52    1
    56    12    53    1
    57    13    54    1
    58    14    55    1
    59    27    56    1
@<TRIPOS>SUBSTRUCTURE
     1 <0>         1 TEMP              0 ****  ****    0 ROOT

