
##########                                Name:      NVB_A1133_3LPB
##########                    Molecular_Weight:              465.53
##########                DOCK_Rotatable_Bonds:                   7
##########                       Formal_Charge:        -0.000200078
##########                     HBond_Acceptors:                   9
##########                        HBond_Donors:                   1
##########                         Heavy_Atoms:                  33
##########                            HA_RMSDs:               1.224
##########                            HA_RMSDh:               1.224
##########                            HA_RMSDm:               1.060
##########                          Grid_Score:          -64.780380
##########                     Grid_vdw_energy:          -64.158127
##########                      Grid_es_energy:           -0.622252
##########           Internal_energy_repulsive:           15.042824

@<TRIPOS>MOLECULE
NVB_A1133_3LPB
 56 59 1 0 0
SMALL
USER_CHARGES


@<TRIPOS>ATOM
      1 C1        110.2704   64.3965    6.0660 C.3     1  <0>         0.0151
      2 C2        113.6102   68.7718   16.5334 C.3     1  <0>         0.0431
      3 C3        110.2631   65.6207   10.7740 C.3     1  <0>         0.0431
      4 C4        110.2997   65.4269   15.4391 C.3     1  <0>         0.0432
      5 C5        118.7077   66.9138    8.2033 C.ar    1  <0>        -0.0590
      6 C6        117.6163   66.1260    7.8027 C.ar    1  <0>        -0.0519
      7 C7        118.6074   67.6463    9.3975 C.ar    1  <0>        -0.0342
      8 C8        114.6427   64.2882    9.0059 C.ar    1  <0>        -0.0521
      9 C9        114.9842   65.2081    6.7611 C.ar    1  <0>        -0.0521
     10 C10       113.6085   63.4928    8.5147 C.ar    1  <0>        -0.0345
     11 C11       113.9689   64.3799    6.2616 C.ar    1  <0>        -0.0345
     12 C12       113.8783   67.7232   13.8220 C.ar    1  <0>        -0.0198
     13 C13       112.8521   66.5933   11.9658 C.ar    1  <0>        -0.0198
     14 C14       116.2574   68.1983   12.1130 C.ar    1  <0>         0.0542
     15 C15       115.3317   65.1674    8.1264 C.ar    1  <0>        -0.0157
     16 C16       113.2824   63.5172    7.1503 C.ar    1  <0>         0.1082
     17 C17       116.4422   66.0377    8.5938 C.ar    1  <0>         0.0096
     18 C18       117.4396   67.5666   10.1848 C.ar    1  <0>         0.0898
     19 C19       113.9321   67.2645   12.5029 C.ar    1  <0>         0.0069
     20 C20       112.6989   67.5389   14.5877 C.ar    1  <0>         0.1088
     21 C21       111.6711   66.4280   12.7121 C.ar    1  <0>         0.1088
     22 C22       115.1804   67.4105   11.7060 C.ar    1  <0>         0.0899
     23 C23       116.3749   66.7361    9.8015 C.ar    1  <0>         0.0975
     24 C24       111.6082   66.9012   14.0257 C.ar    1  <0>         0.1357
     25 N1        117.3575   68.2587   11.3387 N.ar    1  <0>        -0.2513
     26 N2        115.2613   66.6791   10.5652 N.ar    1  <0>        -0.2430
     27 N3        111.1586   63.3773    5.5341 N.pl3   1  <0>        -0.2505
     28 O1        111.0340   62.1357    7.5893 O.2     1  <0>        -0.1503
     29 O2        112.5795   61.3748    5.8319 O.2     1  <0>        -0.1503
     30 O3        112.5787   68.0132   15.8862 O.3     1  <0>        -0.3452
     31 O4        110.5424   65.8006   12.1950 O.3     1  <0>        -0.3452
     32 O5        110.4659   66.7114   14.7861 O.3     1  <0>        -0.3430
     33 S1        111.9908   62.4481    6.5605 S.o2    1  <0>         0.0680
     34 H1        109.7872   64.9321    5.2356 H       1  <0>         0.0439
     35 H2        109.5013   63.9215    6.6927 H       1  <0>         0.0439
     36 H3        110.8504   65.1076    6.6727 H       1  <0>         0.0439
     37 H4        113.2885   69.0349   17.5518 H       1  <0>         0.0529
     38 H5        114.5303   68.1710   16.5836 H       1  <0>         0.0529
     39 H6        113.8032   69.6911   15.9610 H       1  <0>         0.0529
     40 H7        109.3050   65.0942   10.6519 H       1  <0>         0.0529
     41 H8        110.2059   66.6041   10.2843 H       1  <0>         0.0529
     42 H9        111.0679   65.0284   10.3144 H       1  <0>         0.0529
     43 H10       109.3551   65.4209   16.0027 H       1  <0>         0.0529
     44 H11       110.2790   64.6302   14.6808 H       1  <0>         0.0529
     45 H12       111.1391   65.2551   16.1289 H       1  <0>         0.0529
     46 H13       119.6061   66.9555    7.6052 H       1  <0>         0.0618
     47 H14       117.6719   65.5767    6.8744 H       1  <0>         0.0624
     48 H15       119.4277   68.2733    9.7143 H       1  <0>         0.0639
     49 H16       114.9190   64.2368   10.0487 H       1  <0>         0.0624
     50 H17       115.5033   65.8815    6.0951 H       1  <0>         0.0624
     51 H18       113.0554   62.8546    9.1879 H       1  <0>         0.0637
     52 H19       113.7138   64.3997    5.2124 H       1  <0>         0.0637
     53 H20       114.7340   68.2175   14.2578 H       1  <0>         0.0651
     54 H21       112.9143   66.1921   10.9650 H       1  <0>         0.0651
     55 H22       116.2094   68.7534   13.0382 H       1  <0>         0.0851
     56 H23       110.5874   62.7594    4.9938 H       1  <0>         0.1669
@<TRIPOS>BOND
     1     1    27    1
     2     2    30    1
     3     3    31    1
     4     4    32    1
     5     5     6   ar
     6     5     7   ar
     7     6    17   ar
     8     7    18   ar
     9     8    10   ar
    10     8    15   ar
    11     9    11   ar
    12     9    15   ar
    13    10    16   ar
    14    11    16   ar
    15    12    19   ar
    16    12    20   ar
    17    13    19   ar
    18    13    21   ar
    19    14    22   ar
    20    14    25   ar
    21    15    17    1
    22    16    33    1
    23    17    23   ar
    24    18    23   ar
    25    18    25   ar
    26    19    22    1
    27    20    24   ar
    28    20    30    1
    29    21    24   ar
    30    21    31    1
    31    22    26   ar
    32    23    26   ar
    33    24    32    1
    34    27    33    1
    35    28    33    2
    36    29    33    2
    37     1    34    1
    38     1    35    1
    39     1    36    1
    40     2    37    1
    41     2    38    1
    42     2    39    1
    43     3    40    1
    44     3    41    1
    45     3    42    1
    46     4    43    1
    47     4    44    1
    48     4    45    1
    49     5    46    1
    50     6    47    1
    51     7    48    1
    52     8    49    1
    53     9    50    1
    54    10    51    1
    55    11    52    1
    56    12    53    1
    57    13    54    1
    58    14    55    1
    59    27    56    1
@<TRIPOS>SUBSTRUCTURE
     1 <0>         1 TEMP              0 ****  ****    0 ROOT

