
##########                                Name:      NVB_A1133_3LPB
##########                    Molecular_Weight:              465.53
##########                DOCK_Rotatable_Bonds:                   7
##########                       Formal_Charge:        -0.000200078
##########                     HBond_Acceptors:                   9
##########                        HBond_Donors:                   1
##########                         Heavy_Atoms:                  33
##########                            HA_RMSDs:               0.563
##########                            HA_RMSDh:               0.563
##########                            HA_RMSDm:               0.563
##########                          Grid_Score:          -62.978340
##########                     Grid_vdw_energy:          -60.315514
##########                      Grid_es_energy:           -2.662825
##########           Internal_energy_repulsive:           16.027031

@<TRIPOS>MOLECULE
NVB_A1133_3LPB
 56 59 1 0 0
SMALL
USER_CHARGES


@<TRIPOS>ATOM
      1 C1        110.1127   65.0235    6.5874 C.3     1  <0>         0.0151
      2 C2        114.7562   69.3301   16.8468 C.3     1  <0>         0.0431
      3 C3        110.8323   66.1117   11.7728 C.3     1  <0>         0.0431
      4 C4        111.3149   65.9469   15.9819 C.3     1  <0>         0.0432
      5 C5        118.6791   66.6844    7.6641 C.ar    1  <0>        -0.0590
      6 C6        117.4680   65.9933    7.4964 C.ar    1  <0>        -0.0519
      7 C7        118.8706   67.4331    8.8370 C.ar    1  <0>        -0.0342
      8 C8        114.8351   64.1595    9.1067 C.ar    1  <0>        -0.0521
      9 C9        114.4059   65.5946    7.1680 C.ar    1  <0>        -0.0521
     10 C10       113.6524   63.4683    8.8477 C.ar    1  <0>        -0.0345
     11 C11       113.2361   64.8741    6.8872 C.ar    1  <0>        -0.0345
     12 C12       115.1390   67.7833   14.1145 C.ar    1  <0>        -0.0198
     13 C13       113.5843   67.0947   12.4163 C.ar    1  <0>        -0.0198
     14 C14       117.1354   68.2146   11.9321 C.ar    1  <0>         0.0542
     15 C15       115.2131   65.2442    8.2691 C.ar    1  <0>        -0.0157
     16 C16       112.8646   63.8034    7.7361 C.ar    1  <0>         0.1082
     17 C17       116.4625   66.0164    8.4966 C.ar    1  <0>         0.0096
     18 C18       117.8712   67.4640    9.8322 C.ar    1  <0>         0.0898
     19 C19       114.8553   67.4943   12.7767 C.ar    1  <0>         0.0069
     20 C20       114.1100   67.7102   15.0877 C.ar    1  <0>         0.1088
     21 C21       112.5538   67.0429   13.3727 C.ar    1  <0>         0.1088
     22 C22       115.9373   67.5221   11.7554 C.ar    1  <0>         0.0899
     23 C23       116.6859   66.7282    9.6775 C.ar    1  <0>         0.0975
     24 C24       112.8305   67.3483   14.7081 C.ar    1  <0>         0.1357
     25 N1        118.0694   68.1704   10.9630 N.ar    1  <0>        -0.2513
     26 N2        115.7370   66.7768   10.6386 N.ar    1  <0>        -0.2430
     27 N3        110.6343   63.7061    6.2670 N.pl3   1  <0>        -0.2505
     28 O1        110.4748   62.8960    8.5252 O.2     1  <0>        -0.1503
     29 O2        111.7641   61.5937    6.8827 O.2     1  <0>        -0.1503
     30 O3        114.3289   68.0286   16.4204 O.3     1  <0>        -0.3452
     31 O4        111.2482   66.6919   13.0456 O.3     1  <0>        -0.3452
     32 O5        111.8353   67.2640   15.6681 O.3     1  <0>        -0.3430
     33 S1        111.3919   62.8610    7.4165 S.o2    1  <0>         0.0680
     34 H1        109.6314   65.4544    5.6970 H       1  <0>         0.0439
     35 H2        109.3741   64.9381    7.3981 H       1  <0>         0.0439
     36 H3        110.9377   65.6758    6.9099 H       1  <0>         0.0439
     37 H4        114.8615   69.3416   17.9417 H       1  <0>         0.0529
     38 H5        115.7249   69.5681   16.3830 H       1  <0>         0.0529
     39 H6        114.0100   70.0788   16.5425 H       1  <0>         0.0529
     40 H7        109.7467   65.9347   11.7873 H       1  <0>         0.0529
     41 H8        111.0796   66.8053   10.9556 H       1  <0>         0.0529
     42 H9        111.3571   65.1578   11.6158 H       1  <0>         0.0529
     43 H10       110.5370   66.0340   16.7548 H       1  <0>         0.0529
     44 H11       110.8822   65.4983   15.0754 H       1  <0>         0.0529
     45 H12       112.1307   65.3094   16.3533 H       1  <0>         0.0529
     46 H13       119.4476   66.6411    6.9066 H       1  <0>         0.0618
     47 H14       117.2991   65.4335    6.5884 H       1  <0>         0.0624
     48 H15       119.7867   67.9874    8.9776 H       1  <0>         0.0639
     49 H16       115.4606   63.8725    9.9390 H       1  <0>         0.0624
     50 H17       114.6901   66.4233    6.5365 H       1  <0>         0.0624
     51 H18       113.3410   62.6709    9.5062 H       1  <0>         0.0637
     52 H19       112.6263   65.1327    6.0342 H       1  <0>         0.0637
     53 H20       116.1407   68.0621   14.4067 H       1  <0>         0.0651
     54 H21       113.3793   66.8198   11.3921 H       1  <0>         0.0651
     55 H22       117.3118   68.7795   12.8355 H       1  <0>         0.0851
     56 H23       109.8508   63.1543    5.9812 H       1  <0>         0.1669
@<TRIPOS>BOND
     1     1    27    1
     2     2    30    1
     3     3    31    1
     4     4    32    1
     5     5     6   ar
     6     5     7   ar
     7     6    17   ar
     8     7    18   ar
     9     8    10   ar
    10     8    15   ar
    11     9    11   ar
    12     9    15   ar
    13    10    16   ar
    14    11    16   ar
    15    12    19   ar
    16    12    20   ar
    17    13    19   ar
    18    13    21   ar
    19    14    22   ar
    20    14    25   ar
    21    15    17    1
    22    16    33    1
    23    17    23   ar
    24    18    23   ar
    25    18    25   ar
    26    19    22    1
    27    20    24   ar
    28    20    30    1
    29    21    24   ar
    30    21    31    1
    31    22    26   ar
    32    23    26   ar
    33    24    32    1
    34    27    33    1
    35    28    33    2
    36    29    33    2
    37     1    34    1
    38     1    35    1
    39     1    36    1
    40     2    37    1
    41     2    38    1
    42     2    39    1
    43     3    40    1
    44     3    41    1
    45     3    42    1
    46     4    43    1
    47     4    44    1
    48     4    45    1
    49     5    46    1
    50     6    47    1
    51     7    48    1
    52     8    49    1
    53     9    50    1
    54    10    51    1
    55    11    52    1
    56    12    53    1
    57    13    54    1
    58    14    55    1
    59    27    56    1
@<TRIPOS>SUBSTRUCTURE
     1 <0>         1 TEMP              0 ****  ****    0 ROOT

