
##########                                Name:      NVB_A1133_3LPB
##########                    Molecular_Weight:              465.53
##########                DOCK_Rotatable_Bonds:                   7
##########                       Formal_Charge:        -0.000200078
##########                     HBond_Acceptors:                   9
##########                        HBond_Donors:                   1
##########                         Heavy_Atoms:                  33
##########                            HA_RMSDs:               0.308
##########                            HA_RMSDh:               0.308
##########                            HA_RMSDm:               0.308
##########                          Grid_Score:          -67.563408
##########                     Grid_vdw_energy:          -64.789520
##########                      Grid_es_energy:           -2.773887
##########           Internal_energy_repulsive:           15.844646

@<TRIPOS>MOLECULE
NVB_A1133_3LPB
 56 59 1 0 0
SMALL
USER_CHARGES


@<TRIPOS>ATOM
      1 C1        110.2939   64.5329    6.7790 C.3     1  <0>         0.0151
      2 C2        115.0268   69.5744   16.4712 C.3     1  <0>         0.0431
      3 C3        111.0437   65.7912   11.6761 C.3     1  <0>         0.0431
      4 C4        111.8088   65.9174   16.2797 C.3     1  <0>         0.0432
      5 C5        118.9567   66.6852    7.6957 C.ar    1  <0>        -0.0590
      6 C6        117.7817   65.9380    7.5130 C.ar    1  <0>        -0.0519
      7 C7        119.0840   67.4676    8.8552 C.ar    1  <0>        -0.0342
      8 C8        114.9438   64.3308    9.2739 C.ar    1  <0>        -0.0521
      9 C9        115.0024   65.0806    6.9423 C.ar    1  <0>        -0.0521
     10 C10       113.8112   63.5682    8.9926 C.ar    1  <0>        -0.0345
     11 C11       113.8857   64.2838    6.6526 C.ar    1  <0>        -0.0345
     12 C12       115.1373   67.9795   13.9653 C.ar    1  <0>        -0.0198
     13 C13       113.7956   66.7786   12.3738 C.ar    1  <0>        -0.0198
     14 C14       117.2341   68.2414   11.8851 C.ar    1  <0>         0.0542
     15 C15       115.5413   65.1083    8.2445 C.ar    1  <0>        -0.0157
     16 C16       113.2928   63.5232    7.6895 C.ar    1  <0>         0.1082
     17 C17       116.7495   65.9394    8.4860 C.ar    1  <0>         0.0096
     18 C18       118.0578   67.4770    9.8231 C.ar    1  <0>         0.0898
     19 C19       114.9654   67.4408   12.6871 C.ar    1  <0>         0.0069
     20 C20       114.0923   67.8845   14.9194 C.ar    1  <0>         0.1088
     21 C21       112.7465   66.7015   13.3079 C.ar    1  <0>         0.1088
     22 C22       116.0722   67.4932   11.6938 C.ar    1  <0>         0.0899
     23 C23       116.9101   66.6866    9.6552 C.ar    1  <0>         0.0975
     24 C24       112.9088   67.2545   14.5811 C.ar    1  <0>         0.1357
     25 N1        118.1949   68.2165   10.9418 N.ar    1  <0>        -0.2513
     26 N2        115.9345   66.7150   10.5900 N.ar    1  <0>        -0.2430
     27 N3        111.0087   63.3576    6.3120 N.pl3   1  <0>        -0.2505
     28 O1        111.0138   62.3898    8.5131 O.2     1  <0>        -0.1503
     29 O2        112.3145   61.2991    6.7313 O.2     1  <0>        -0.1503
     30 O3        114.1957   68.4399   16.1869 O.3     1  <0>        -0.3452
     31 O4        111.5330   66.0858   13.0190 O.3     1  <0>        -0.3452
     32 O5        111.8995   67.1525   15.5245 O.3     1  <0>        -0.3430
     33 S1        111.8780   62.4969    7.3671 S.o2    1  <0>         0.0680
     34 H1        109.7585   64.9956    5.9368 H       1  <0>         0.0439
     35 H2        109.5720   64.2385    7.5549 H       1  <0>         0.0439
     36 H3        111.0101   65.2545    7.1989 H       1  <0>         0.0439
     37 H4        114.9453   69.8312   17.5376 H       1  <0>         0.0529
     38 H5        116.0726   69.3318   16.2315 H       1  <0>         0.0529
     39 H6        114.6998   70.4300   15.8621 H       1  <0>         0.0529
     40 H7        110.0600   65.3035   11.7426 H       1  <0>         0.0529
     41 H8        110.9508   66.7276   11.1063 H       1  <0>         0.0529
     42 H9        111.7516   65.1207   11.1670 H       1  <0>         0.0529
     43 H10       110.9675   65.9796   16.9856 H       1  <0>         0.0529
     44 H11       111.6464   65.0766   15.5892 H       1  <0>         0.0529
     45 H12       112.7438   65.7591   16.8371 H       1  <0>         0.0529
     46 H13       119.7465   66.6587    6.9595 H       1  <0>         0.0618
     47 H14       117.6615   65.3511    6.6144 H       1  <0>         0.0624
     48 H15       119.9713   68.0646    9.0064 H       1  <0>         0.0639
     49 H16       115.3651   64.3310   10.2684 H       1  <0>         0.0624
     50 H17       115.4526   65.6772    6.1626 H       1  <0>         0.0624
     51 H18       113.3303   63.0093    9.7817 H       1  <0>         0.0637
     52 H19       113.4827   64.2504    5.6511 H       1  <0>         0.0637
     53 H20       116.0648   68.4675   14.2262 H       1  <0>         0.0651
     54 H21       113.6849   66.3161   11.4041 H       1  <0>         0.0651
     55 H22       117.3615   68.8336   12.7792 H       1  <0>         0.0851
     56 H23       110.3184   62.7360    5.9418 H       1  <0>         0.1669
@<TRIPOS>BOND
     1     1    27    1
     2     2    30    1
     3     3    31    1
     4     4    32    1
     5     5     6   ar
     6     5     7   ar
     7     6    17   ar
     8     7    18   ar
     9     8    10   ar
    10     8    15   ar
    11     9    11   ar
    12     9    15   ar
    13    10    16   ar
    14    11    16   ar
    15    12    19   ar
    16    12    20   ar
    17    13    19   ar
    18    13    21   ar
    19    14    22   ar
    20    14    25   ar
    21    15    17    1
    22    16    33    1
    23    17    23   ar
    24    18    23   ar
    25    18    25   ar
    26    19    22    1
    27    20    24   ar
    28    20    30    1
    29    21    24   ar
    30    21    31    1
    31    22    26   ar
    32    23    26   ar
    33    24    32    1
    34    27    33    1
    35    28    33    2
    36    29    33    2
    37     1    34    1
    38     1    35    1
    39     1    36    1
    40     2    37    1
    41     2    38    1
    42     2    39    1
    43     3    40    1
    44     3    41    1
    45     3    42    1
    46     4    43    1
    47     4    44    1
    48     4    45    1
    49     5    46    1
    50     6    47    1
    51     7    48    1
    52     8    49    1
    53     9    50    1
    54    10    51    1
    55    11    52    1
    56    12    53    1
    57    13    54    1
    58    14    55    1
    59    27    56    1
@<TRIPOS>SUBSTRUCTURE
     1 <0>         1 TEMP              0 ****  ****    0 ROOT

