
##########                                Name:      NVB_A1133_3LPB
##########                    Molecular_Weight:              465.53
##########                DOCK_Rotatable_Bonds:                   7
##########                       Formal_Charge:        -0.000200078
##########                     HBond_Acceptors:                   9
##########                        HBond_Donors:                   1
##########                         Heavy_Atoms:                  33
##########                            HA_RMSDs:               1.014
##########                            HA_RMSDh:               1.014
##########                            HA_RMSDm:               0.913
##########                          Grid_Score:          -66.508896
##########                     Grid_vdw_energy:          -65.412834
##########                      Grid_es_energy:           -1.096064
##########           Internal_energy_repulsive:           14.635487

@<TRIPOS>MOLECULE
NVB_A1133_3LPB
 56 59 1 0 0
SMALL
USER_CHARGES


@<TRIPOS>ATOM
      1 C1        110.3738   64.7873    6.7324 C.3     1  <0>         0.0151
      2 C2        113.6656   69.2281   16.7176 C.3     1  <0>         0.0431
      3 C3        110.3149   65.9477   11.2240 C.3     1  <0>         0.0431
      4 C4        110.5897   65.5439   15.8434 C.3     1  <0>         0.0432
      5 C5        118.6969   66.9201    8.2668 C.ar    1  <0>        -0.0590
      6 C6        117.5720   66.1538    7.9206 C.ar    1  <0>        -0.0519
      7 C7        118.6706   67.6514    9.4656 C.ar    1  <0>        -0.0342
      8 C8        114.6325   64.3648    9.2682 C.ar    1  <0>        -0.0521
      9 C9        114.8704   65.2919    7.0131 C.ar    1  <0>        -0.0521
     10 C10       113.5599   63.5902    8.8288 C.ar    1  <0>        -0.0345
     11 C11       113.8157   64.4843    6.5642 C.ar    1  <0>        -0.0345
     12 C12       114.1878   67.7612   14.1376 C.ar    1  <0>        -0.0198
     13 C13       113.0173   66.7420   12.3029 C.ar    1  <0>        -0.0198
     14 C14       116.4714   68.2404   12.2972 C.ar    1  <0>         0.0542
     15 C15       115.2891   65.2372    8.3578 C.ar    1  <0>        -0.0157
     16 C16       113.1623   63.6283    7.4837 C.ar    1  <0>         0.1082
     17 C17       116.4378   66.0855    8.7698 C.ar    1  <0>         0.0096
     18 C18       117.5428   67.5915   10.3108 C.ar    1  <0>         0.0898
     19 C19       114.1517   67.3491   12.8026 C.ar    1  <0>         0.0069
     20 C20       113.0442   67.5967   14.9601 C.ar    1  <0>         0.1088
     21 C21       111.8719   66.5971   13.1068 C.ar    1  <0>         0.1088
     22 C22       115.3607   67.4738   11.9439 C.ar    1  <0>         0.0899
     23 C23       116.4447   66.7820    9.9805 C.ar    1  <0>         0.0975
     24 C24       111.8992   67.0242   14.4373 C.ar    1  <0>         0.1357
     25 N1        117.5320   68.2822   11.4685 N.ar    1  <0>        -0.2513
     26 N2        115.3702   66.7438   10.7993 N.ar    1  <0>        -0.2430
     27 N3        110.8731   63.5756    6.1057 N.pl3   1  <0>        -0.2505
     28 O1        110.9892   62.1778    8.0585 O.2     1  <0>        -0.1503
     29 O2        112.3363   61.5814    6.0872 O.2     1  <0>        -0.1503
     30 O3        113.0136   68.0278   16.2787 O.3     1  <0>        -0.3452
     31 O4        110.6918   66.0349   12.6312 O.3     1  <0>        -0.3452
     32 O5        110.7921   66.8529   15.2523 O.3     1  <0>        -0.3430
     33 S1        111.8228   62.5851    6.9582 S.o2    1  <0>         0.0680
     34 H1        109.7483   65.3402    6.0161 H       1  <0>         0.0439
     35 H2        109.7733   64.5227    7.6152 H       1  <0>         0.0439
     36 H3        111.2217   65.4167    7.0407 H       1  <0>         0.0439
     37 H4        113.5025   69.3608   17.7972 H       1  <0>         0.0529
     38 H5        114.7444   69.1537   16.5164 H       1  <0>         0.0529
     39 H6        113.2499   70.0902   16.1754 H       1  <0>         0.0529
     40 H7        109.3340   65.4577   11.1363 H       1  <0>         0.0529
     41 H8        110.2587   66.9597   10.7963 H       1  <0>         0.0529
     42 H9        111.0681   65.3603   10.6785 H       1  <0>         0.0529
     43 H10       109.6793   65.5565   16.4606 H       1  <0>         0.0529
     44 H11       110.4814   64.7943   15.0457 H       1  <0>         0.0529
     45 H12       111.4552   65.2880   16.4723 H       1  <0>         0.0529
     46 H13       119.5645   66.9466    7.6242 H       1  <0>         0.0618
     47 H14       117.5704   65.6059    6.9899 H       1  <0>         0.0624
     48 H15       119.5175   68.2622    9.7416 H       1  <0>         0.0639
     49 H16       114.9628   64.3024   10.2946 H       1  <0>         0.0624
     50 H17       115.3652   65.9602    6.3239 H       1  <0>         0.0624
     51 H18       113.0323   62.9576    9.5272 H       1  <0>         0.0637
     52 H19       113.5056   64.5147    5.5301 H       1  <0>         0.0637
     53 H20       115.0856   68.2045   14.5425 H       1  <0>         0.0651
     54 H21       113.0090   66.3753   11.2871 H       1  <0>         0.0651
     55 H22       116.4806   68.7940   13.2245 H       1  <0>         0.0851
     56 H23       110.0693   63.0409    5.8451 H       1  <0>         0.1669
@<TRIPOS>BOND
     1     1    27    1
     2     2    30    1
     3     3    31    1
     4     4    32    1
     5     5     6   ar
     6     5     7   ar
     7     6    17   ar
     8     7    18   ar
     9     8    10   ar
    10     8    15   ar
    11     9    11   ar
    12     9    15   ar
    13    10    16   ar
    14    11    16   ar
    15    12    19   ar
    16    12    20   ar
    17    13    19   ar
    18    13    21   ar
    19    14    22   ar
    20    14    25   ar
    21    15    17    1
    22    16    33    1
    23    17    23   ar
    24    18    23   ar
    25    18    25   ar
    26    19    22    1
    27    20    24   ar
    28    20    30    1
    29    21    24   ar
    30    21    31    1
    31    22    26   ar
    32    23    26   ar
    33    24    32    1
    34    27    33    1
    35    28    33    2
    36    29    33    2
    37     1    34    1
    38     1    35    1
    39     1    36    1
    40     2    37    1
    41     2    38    1
    42     2    39    1
    43     3    40    1
    44     3    41    1
    45     3    42    1
    46     4    43    1
    47     4    44    1
    48     4    45    1
    49     5    46    1
    50     6    47    1
    51     7    48    1
    52     8    49    1
    53     9    50    1
    54    10    51    1
    55    11    52    1
    56    12    53    1
    57    13    54    1
    58    14    55    1
    59    27    56    1
@<TRIPOS>SUBSTRUCTURE
     1 <0>         1 TEMP              0 ****  ****    0 ROOT

