
##########                                Name:          5BM_1_3EQH
##########                    Molecular_Weight:             380.497
##########                DOCK_Rotatable_Bonds:                   9
##########                       Formal_Charge:        -0.000399947
##########                     HBond_Acceptors:                   8
##########                        HBond_Donors:                   8
##########                         Heavy_Atoms:                  26
##########                            HA_RMSDs:              10.047
##########                            HA_RMSDh:               7.131
##########                            HA_RMSDm:               6.579
##########                          Grid_Score:          -44.555920
##########                     Grid_vdw_energy:          -43.645180
##########                      Grid_es_energy:           -0.910741
##########           Internal_energy_repulsive:            6.412509

@<TRIPOS>MOLECULE
5BM_1_3EQH
 42 43 1 0 0
SMALL
USER_CHARGES


@<TRIPOS>ATOM
      1 C1         -9.1839   63.2697   33.3970 C.ar    1  <0>        -0.0600
      2 C2         -7.0562   50.5773   29.4051 C.ar    1  <0>        -0.0600
      3 C3         -9.1764   62.1689   32.5103 C.ar    1  <0>        -0.0606
      4 C4         -7.3683   50.6336   30.7722 C.ar    1  <0>        -0.0606
      5 C5         -8.8990   63.0895   34.7566 C.ar    1  <0>        -0.0400
      6 C6         -6.1760   51.5233   28.8138 C.ar    1  <0>        -0.0400
      7 C7         -8.8888   60.8820   32.9912 C.ar    1  <0>        -0.0462
      8 C8         -6.8243   51.6275   31.5671 C.ar    1  <0>        -0.0462
      9 C9         -8.4445   56.3770   33.9601 C.1     1  <0>         0.1029
     10 C10        -4.9852   56.2074   33.8439 C.1     1  <0>         0.1029
     11 C11        -8.6095   61.7969   35.2501 C.ar    1  <0>         0.0385
     12 C12        -5.6177   52.5408   29.6140 C.ar    1  <0>         0.0385
     13 C13        -8.5969   60.6893   34.3580 C.ar    1  <0>         0.0345
     14 C14        -5.9676   52.5798   31.0064 C.ar    1  <0>         0.0345
     15 C15        -7.2413   57.0119   33.5324 C.2     1  <0>         0.0988
     16 C16        -6.1989   56.1245   33.0977 C.2     1  <0>         0.0988
     17 C17        -7.0440   58.2791   33.9413 C.2     1  <0>         0.0824
     18 C18        -6.4399   55.0819   32.2622 C.2     1  <0>         0.0824
     19 N1         -8.3399   61.6469   36.5571 N.pl3   1  <0>        -0.3571
     20 N2         -4.7814   53.4418   29.0593 N.pl3   1  <0>        -0.3571
     21 N3         -5.9805   59.1125   33.6926 N.pl3   1  <0>        -0.3516
     22 N4         -7.5692   54.8532   31.4639 N.pl3   1  <0>        -0.3516
     23 N5         -9.4107   55.8610   34.2997 N.1     1  <0>        -0.1908
     24 N6         -4.0066   56.3286   34.4802 N.1     1  <0>        -0.1908
     25 S1         -8.2577   59.0557   34.9730 S.3     1  <0>        -0.0715
     26 S2         -5.2967   53.7895   32.0609 S.3     1  <0>        -0.0715
     27 H1         -9.4109   64.2573   33.0234 H       1  <0>         0.0618
     28 H2         -7.4921   49.8021   28.7924 H       1  <0>         0.0618
     29 H3         -9.3919   62.3180   31.4625 H       1  <0>         0.0618
     30 H4         -8.0336   49.9008   31.2044 H       1  <0>         0.0618
     31 H5         -8.9005   63.9366   35.4267 H       1  <0>         0.0636
     32 H6         -5.9372   51.4634   27.7623 H       1  <0>         0.0636
     33 H7         -8.8911   60.0397   32.3154 H       1  <0>         0.0629
     34 H8         -7.0613   51.6674   32.6201 H       1  <0>         0.0629
     35 H9         -8.1568   60.6832   36.7517 H       1  <0>         0.1424
     36 H10        -7.5375   62.1935   36.7967 H       1  <0>         0.1424
     37 H11        -4.4773   54.0894   29.7581 H       1  <0>         0.1424
     38 H12        -3.9882   52.9685   28.6761 H       1  <0>         0.1424
     39 H13        -6.0511   59.9253   34.2709 H       1  <0>         0.1428
     40 H14        -5.1268   58.6327   33.8948 H       1  <0>         0.1428
     41 H15        -7.6272   53.8807   31.2384 H       1  <0>         0.1428
     42 H16        -8.3910   55.1292   31.9623 H       1  <0>         0.1428
@<TRIPOS>BOND
     1     1     3   ar
     2     1     5   ar
     3     2     4   ar
     4     2     6   ar
     5     3     7   ar
     6     4     8   ar
     7     5    11   ar
     8     6    12   ar
     9     7    13   ar
    10     8    14   ar
    11     9    15    1
    12     9    23    3
    13    10    16    1
    14    10    24    3
    15    11    13   ar
    16    11    19    1
    17    12    14   ar
    18    12    20    1
    19    13    25    1
    20    14    26    1
    21    15    16    1
    22    15    17    2
    23    16    18    2
    24    17    21    1
    25    17    25    1
    26    18    22    1
    27    18    26    1
    28     1    27    1
    29     2    28    1
    30     3    29    1
    31     4    30    1
    32     5    31    1
    33     6    32    1
    34     7    33    1
    35     8    34    1
    36    19    35    1
    37    19    36    1
    38    20    37    1
    39    20    38    1
    40    21    39    1
    41    21    40    1
    42    22    41    1
    43    22    42    1
@<TRIPOS>SUBSTRUCTURE
     1 <0>         1 TEMP              0 ****  ****    0 ROOT

