
##########                                Name:          5BM_1_3EQH
##########                    Molecular_Weight:             380.497
##########                DOCK_Rotatable_Bonds:                   9
##########                       Formal_Charge:        -0.000399947
##########                     HBond_Acceptors:                   8
##########                        HBond_Donors:                   8
##########                         Heavy_Atoms:                  26
##########                            HA_RMSDs:               0.353
##########                            HA_RMSDh:               0.353
##########                            HA_RMSDm:               0.353
##########                          Grid_Score:          -45.261951
##########                     Grid_vdw_energy:          -44.517494
##########                      Grid_es_energy:           -0.744458
##########           Internal_energy_repulsive:            4.899825

@<TRIPOS>MOLECULE
5BM_1_3EQH
 42 43 1 0 0
SMALL
USER_CHARGES


@<TRIPOS>ATOM
      1 C1         -5.3823   54.0810   29.8198 C.ar    1  <0>        -0.0600
      2 C2          2.1715   63.8264   32.6697 C.ar    1  <0>        -0.0600
      3 C3         -4.2086   54.8632   29.7249 C.ar    1  <0>        -0.0606
      4 C4          2.9916   62.8271   33.2160 C.ar    1  <0>        -0.0606
      5 C5         -5.8011   53.5745   31.0568 C.ar    1  <0>        -0.0400
      6 C6          0.7715   63.8408   32.9127 C.ar    1  <0>        -0.0400
      7 C7         -3.4493   55.1320   30.8744 C.ar    1  <0>        -0.0462
      8 C8          2.4391   61.8278   33.9983 C.ar    1  <0>        -0.0462
      9 C9         -0.3802   56.2701   34.0221 C.1     1  <0>         0.1029
     10 C10        -1.9238   58.7329   35.8000 C.1     1  <0>         0.1029
     11 C11        -5.0420   53.8389   32.2195 C.ar    1  <0>         0.0385
     12 C12         0.1982   62.8268   33.7066 C.ar    1  <0>         0.0385
     13 C13        -3.8637   54.6299   32.1261 C.ar    1  <0>         0.0345
     14 C14         1.0620   61.8106   34.2397 C.ar    1  <0>         0.0345
     15 C15        -1.4601   57.2010   33.9911 C.2     1  <0>         0.0988
     16 C16        -1.1931   58.4731   34.6020 C.2     1  <0>         0.0988
     17 C17        -2.6910   56.6975   33.7827 C.2     1  <0>         0.0824
     18 C18        -0.1198   59.2292   34.2559 C.2     1  <0>         0.0824
     19 N1         -5.4615   53.3429   33.3948 N.pl3   1  <0>        -0.3571
     20 N2         -1.1298   62.8346   33.9415 N.pl3   1  <0>        -0.3571
     21 N3         -3.8954   57.3554   33.7202 N.pl3   1  <0>        -0.3516
     22 N4          0.6973   59.1085   33.1235 N.pl3   1  <0>        -0.3516
     23 N5          0.4928   55.5269   34.0473 N.1     1  <0>        -0.1908
     24 N6         -2.5621   58.9008   36.7704 N.1     1  <0>        -0.1908
     25 S1         -2.8887   54.9482   33.5787 S.3     1  <0>        -0.0715
     26 S2          0.4303   60.5433   35.2500 S.3     1  <0>        -0.0715
     27 H1         -5.9604   53.8724   28.9317 H       1  <0>         0.0618
     28 H2          2.6118   64.5972   32.0545 H       1  <0>         0.0618
     29 H3         -3.8962   55.2542   28.7679 H       1  <0>         0.0618
     30 H4          4.0546   62.8377   33.0258 H       1  <0>         0.0618
     31 H5         -6.7024   52.9829   31.1220 H       1  <0>         0.0636
     32 H6          0.1531   64.6207   32.4934 H       1  <0>         0.0636
     33 H7         -2.5483   55.7227   30.8008 H       1  <0>         0.0629
     34 H8          3.0715   61.0617   34.4222 H       1  <0>         0.0629
     35 H9         -4.8253   53.6131   34.1174 H       1  <0>         0.1424
     36 H10        -6.3721   53.7010   33.6016 H       1  <0>         0.1424
     37 H11        -1.3717   62.0534   34.5170 H       1  <0>         0.1424
     38 H12        -1.3807   63.6826   34.4083 H       1  <0>         0.1424
     39 H13        -4.6398   56.6879   33.6998 H       1  <0>         0.1428
     40 H14        -3.9964   57.9426   34.5234 H       1  <0>         0.1428
     41 H15         1.3811   59.8382   33.1259 H       1  <0>         0.1428
     42 H16         1.1574   58.2208   33.1377 H       1  <0>         0.1428
@<TRIPOS>BOND
     1     1     3   ar
     2     1     5   ar
     3     2     4   ar
     4     2     6   ar
     5     3     7   ar
     6     4     8   ar
     7     5    11   ar
     8     6    12   ar
     9     7    13   ar
    10     8    14   ar
    11     9    15    1
    12     9    23    3
    13    10    16    1
    14    10    24    3
    15    11    13   ar
    16    11    19    1
    17    12    14   ar
    18    12    20    1
    19    13    25    1
    20    14    26    1
    21    15    16    1
    22    15    17    2
    23    16    18    2
    24    17    21    1
    25    17    25    1
    26    18    22    1
    27    18    26    1
    28     1    27    1
    29     2    28    1
    30     3    29    1
    31     4    30    1
    32     5    31    1
    33     6    32    1
    34     7    33    1
    35     8    34    1
    36    19    35    1
    37    19    36    1
    38    20    37    1
    39    20    38    1
    40    21    39    1
    41    21    40    1
    42    22    41    1
    43    22    42    1
@<TRIPOS>SUBSTRUCTURE
     1 <0>         1 TEMP              0 ****  ****    0 ROOT

