
##########                                Name:          5BM_1_3EQH
##########                    Molecular_Weight:             380.497
##########                DOCK_Rotatable_Bonds:                   9
##########                       Formal_Charge:        -0.000399947
##########                     HBond_Acceptors:                   8
##########                        HBond_Donors:                   8
##########                         Heavy_Atoms:                  26
##########                            HA_RMSDs:              10.707
##########                            HA_RMSDh:               8.088
##########                            HA_RMSDm:               7.165
##########                          Grid_Score:          -47.881458
##########                     Grid_vdw_energy:          -47.388138
##########                      Grid_es_energy:           -0.493320
##########           Internal_energy_repulsive:            6.114746

@<TRIPOS>MOLECULE
5BM_1_3EQH
 42 43 1 0 0
SMALL
USER_CHARGES


@<TRIPOS>ATOM
      1 C1         -6.7137   67.8120   33.4972 C.ar    1  <0>        -0.0600
      2 C2         -5.0221   55.1920   31.9153 C.ar    1  <0>        -0.0600
      3 C3         -6.3829   66.5770   32.8942 C.ar    1  <0>        -0.0606
      4 C4         -6.3745   55.0799   31.5576 C.ar    1  <0>        -0.0606
      5 C5         -7.8703   67.9349   34.2779 C.ar    1  <0>        -0.0400
      6 C6         -4.6101   56.0554   32.9661 C.ar    1  <0>        -0.0400
      7 C7         -7.2195   65.4637   33.0698 C.ar    1  <0>        -0.0462
      8 C8         -7.3320   55.8240   32.2248 C.ar    1  <0>        -0.0462
      9 C9         -9.8597   61.5898   32.8727 C.1     1  <0>         0.1029
     10 C10        -8.5345   60.1031   35.7000 C.1     1  <0>         0.1029
     11 C11        -8.7194   66.8194   34.4591 C.ar    1  <0>         0.0385
     12 C12        -5.5769   56.8192   33.6510 C.ar    1  <0>         0.0385
     13 C13        -8.3850   65.5751   33.8570 C.ar    1  <0>         0.0345
     14 C14        -6.9508   56.6926   33.2522 C.ar    1  <0>         0.0345
     15 C15        -8.7758   61.5738   33.7993 C.2     1  <0>         0.0988
     16 C16        -8.4048   60.2757   34.2893 C.2     1  <0>         0.0988
     17 C17        -8.4870   62.7343   34.4172 C.2     1  <0>         0.0824
     18 C18        -8.2462   59.2102   33.4629 C.2     1  <0>         0.0824
     19 N1         -9.8233   66.9598   35.2108 N.pl3   1  <0>        -0.3571
     20 N2         -5.1928   57.6405   34.6495 N.pl3   1  <0>        -0.3571
     21 N3         -7.5169   62.9975   35.3538 N.pl3   1  <0>        -0.3516
     22 N4         -8.1039   59.2076   32.0685 N.pl3   1  <0>        -0.3516
     23 N5        -10.7298   61.5962   32.1257 N.1     1  <0>        -0.1908
     24 N6         -8.6446   60.0218   36.8656 N.1     1  <0>        -0.1908
     25 S1         -9.4589   64.1722   34.0589 S.3     1  <0>        -0.0715
     26 S2         -8.2022   57.5828   34.0691 S.3     1  <0>        -0.0715
     27 H1         -6.0697   68.6673   33.3549 H       1  <0>         0.0618
     28 H2         -4.2822   54.6125   31.3832 H       1  <0>         0.0618
     29 H3         -5.4863   66.4900   32.2984 H       1  <0>         0.0618
     30 H4         -6.6684   54.4125   30.7611 H       1  <0>         0.0618
     31 H5         -8.1128   68.8803   34.7405 H       1  <0>         0.0636
     32 H6         -3.5670   56.1258   33.2371 H       1  <0>         0.0636
     33 H7         -6.9712   64.5223   32.6025 H       1  <0>         0.0629
     34 H8         -8.3731   55.7338   31.9521 H       1  <0>         0.0629
     35 H9        -10.3168   66.0908   35.2446 H       1  <0>         0.1424
     36 H10        -9.5631   67.2315   36.1374 H       1  <0>         0.1424
     37 H11        -5.9942   58.1048   35.0267 H       1  <0>         0.1424
     38 H12        -4.7485   57.1059   35.3684 H       1  <0>         0.1424
     39 H13        -7.5399   63.9678   35.5946 H       1  <0>         0.1428
     40 H14        -7.6854   62.4471   36.1716 H       1  <0>         0.1428
     41 H15        -7.7570   58.3185   31.7700 H       1  <0>         0.1428
     42 H16        -8.9923   59.3786   31.6426 H       1  <0>         0.1428
@<TRIPOS>BOND
     1     1     3   ar
     2     1     5   ar
     3     2     4   ar
     4     2     6   ar
     5     3     7   ar
     6     4     8   ar
     7     5    11   ar
     8     6    12   ar
     9     7    13   ar
    10     8    14   ar
    11     9    15    1
    12     9    23    3
    13    10    16    1
    14    10    24    3
    15    11    13   ar
    16    11    19    1
    17    12    14   ar
    18    12    20    1
    19    13    25    1
    20    14    26    1
    21    15    16    1
    22    15    17    2
    23    16    18    2
    24    17    21    1
    25    17    25    1
    26    18    22    1
    27    18    26    1
    28     1    27    1
    29     2    28    1
    30     3    29    1
    31     4    30    1
    32     5    31    1
    33     6    32    1
    34     7    33    1
    35     8    34    1
    36    19    35    1
    37    19    36    1
    38    20    37    1
    39    20    38    1
    40    21    39    1
    41    21    40    1
    42    22    41    1
    43    22    42    1
@<TRIPOS>SUBSTRUCTURE
     1 <0>         1 TEMP              0 ****  ****    0 ROOT

