
##########                                Name:          5BM_1_3EQH
##########                    Molecular_Weight:             380.497
##########                DOCK_Rotatable_Bonds:                   9
##########                       Formal_Charge:        -0.000399947
##########                     HBond_Acceptors:                   8
##########                        HBond_Donors:                   8
##########                         Heavy_Atoms:                  26
##########                            HA_RMSDs:               8.823
##########                            HA_RMSDh:               1.632
##########                            HA_RMSDm:               1.450
##########                          Grid_Score:          -49.822861
##########                     Grid_vdw_energy:          -49.067184
##########                      Grid_es_energy:           -0.755675
##########           Internal_energy_repulsive:            5.412675

@<TRIPOS>MOLECULE
5BM_1_3EQH
 42 43 1 0 0
SMALL
USER_CHARGES


@<TRIPOS>ATOM
      1 C1          2.2575   63.7778   33.1233 C.ar    1  <0>        -0.0600
      2 C2         -7.3939   54.2544   31.7541 C.ar    1  <0>        -0.0600
      3 C3          0.9876   63.3499   32.6733 C.ar    1  <0>        -0.0606
      4 C4         -6.9199   53.9611   33.0421 C.ar    1  <0>        -0.0606
      5 C5          2.8895   63.1280   34.1913 C.ar    1  <0>        -0.0400
      6 C6         -6.5203   54.7391   30.7436 C.ar    1  <0>        -0.0400
      7 C7          0.3471   62.2707   33.3019 C.ar    1  <0>        -0.0462
      8 C8         -5.5838   54.1514   33.3492 C.ar    1  <0>        -0.0462
      9 C9         -2.1383   58.5316   35.2850 C.1     1  <0>         0.1029
     10 C10        -0.4373   56.0122   33.8133 C.1     1  <0>         0.1029
     11 C11         2.2513   62.0411   34.8313 C.ar    1  <0>         0.0385
     12 C12        -5.1580   54.9384   31.0461 C.ar    1  <0>         0.0385
     13 C13         0.9758   61.6065   34.3762 C.ar    1  <0>         0.0345
     14 C14        -4.7067   54.6421   32.3770 C.ar    1  <0>         0.0345
     15 C15        -1.3122   58.2366   34.1606 C.2     1  <0>         0.0988
     16 C16        -1.5013   56.9352   33.5833 C.2     1  <0>         0.0988
     17 C17        -0.2055   58.9871   34.0058 C.2     1  <0>         0.0824
     18 C18        -2.7102   56.5148   33.1305 C.2     1  <0>         0.0824
     19 N1          2.8749   61.4332   35.8535 N.pl3   1  <0>        -0.3571
     20 N2         -4.3233   55.3980   30.0916 N.pl3   1  <0>        -0.3571
     21 N3          0.7617   58.9115   33.0331 N.pl3   1  <0>        -0.3516
     22 N4         -3.8485   57.2847   32.8542 N.pl3   1  <0>        -0.3516
     23 N5         -2.8075   58.7643   36.1868 N.1     1  <0>        -0.1908
     24 N6          0.4727   55.3003   34.0187 N.1     1  <0>        -0.1908
     25 S1          0.1540   60.2558   35.1898 S.3     1  <0>        -0.0715
     26 S2         -3.0349   54.8375   32.8160 S.3     1  <0>        -0.0715
     27 H1          2.7442   64.6120   32.6400 H       1  <0>         0.0618
     28 H2         -8.4398   54.1093   31.5273 H       1  <0>         0.0618
     29 H3          0.5102   63.8534   31.8456 H       1  <0>         0.0618
     30 H4         -7.5983   53.5864   33.7943 H       1  <0>         0.0618
     31 H5          3.8625   63.4569   34.5253 H       1  <0>         0.0636
     32 H6         -6.8963   54.9527   29.7539 H       1  <0>         0.0636
     33 H7         -0.6267   61.9489   32.9635 H       1  <0>         0.0629
     34 H8         -5.2189   53.9211   34.3393 H       1  <0>         0.0629
     35 H9          2.3024   60.6897   36.1991 H       1  <0>         0.1424
     36 H10         3.7482   61.0621   35.5378 H       1  <0>         0.1424
     37 H11        -3.4005   55.4823   30.4675 H       1  <0>         0.1424
     38 H12        -4.3127   54.7590   29.3225 H       1  <0>         0.1424
     39 H13         1.6339   59.2305   33.4040 H       1  <0>         0.1428
     40 H14         0.8556   57.9633   32.7295 H       1  <0>         0.1428
     41 H15        -4.3351   56.8928   32.0734 H       1  <0>         0.1428
     42 H16        -4.4497   57.2893   33.6532 H       1  <0>         0.1428
@<TRIPOS>BOND
     1     1     3   ar
     2     1     5   ar
     3     2     4   ar
     4     2     6   ar
     5     3     7   ar
     6     4     8   ar
     7     5    11   ar
     8     6    12   ar
     9     7    13   ar
    10     8    14   ar
    11     9    15    1
    12     9    23    3
    13    10    16    1
    14    10    24    3
    15    11    13   ar
    16    11    19    1
    17    12    14   ar
    18    12    20    1
    19    13    25    1
    20    14    26    1
    21    15    16    1
    22    15    17    2
    23    16    18    2
    24    17    21    1
    25    17    25    1
    26    18    22    1
    27    18    26    1
    28     1    27    1
    29     2    28    1
    30     3    29    1
    31     4    30    1
    32     5    31    1
    33     6    32    1
    34     7    33    1
    35     8    34    1
    36    19    35    1
    37    19    36    1
    38    20    37    1
    39    20    38    1
    40    21    39    1
    41    21    40    1
    42    22    41    1
    43    22    42    1
@<TRIPOS>SUBSTRUCTURE
     1 <0>         1 TEMP              0 ****  ****    0 ROOT

