
##########                                Name:          5BM_1_3EQH
##########                    Molecular_Weight:             380.497
##########                DOCK_Rotatable_Bonds:                   9
##########                       Formal_Charge:        -0.000399947
##########                     HBond_Acceptors:                   8
##########                        HBond_Donors:                   8
##########                         Heavy_Atoms:                  26
##########                            HA_RMSDs:              10.172
##########                            HA_RMSDh:               8.211
##########                            HA_RMSDm:               7.270
##########                          Grid_Score:          -44.811954
##########                     Grid_vdw_energy:          -43.469025
##########                      Grid_es_energy:           -1.342929
##########           Internal_energy_repulsive:            4.882070

@<TRIPOS>MOLECULE
5BM_1_3EQH
 42 43 1 0 0
SMALL
USER_CHARGES


@<TRIPOS>ATOM
      1 C1         -7.6962   67.6754   32.7459 C.ar    1  <0>        -0.0600
      2 C2         -3.2149   56.3957   32.2150 C.ar    1  <0>        -0.0600
      3 C3         -7.1468   66.4069   32.4504 C.ar    1  <0>        -0.0606
      4 C4         -4.4057   56.2488   31.4870 C.ar    1  <0>        -0.0606
      5 C5         -8.8485   67.7849   33.5348 C.ar    1  <0>        -0.0400
      6 C6         -3.2201   56.9376   33.5286 C.ar    1  <0>        -0.0400
      7 C7         -7.7601   65.2443   32.9427 C.ar    1  <0>        -0.0462
      8 C8         -5.6107   56.6430   32.0421 C.ar    1  <0>        -0.0462
      9 C9         -9.8565   61.2504   33.1796 C.1     1  <0>         0.1029
     10 C10        -8.2986   59.8230   35.7565 C.1     1  <0>         0.1029
     11 C11        -9.4736   66.6194   34.0338 C.ar    1  <0>         0.0385
     12 C12        -4.4417   57.3439   34.1029 C.ar    1  <0>         0.0385
     13 C13        -8.9189   65.3428   33.7413 C.ar    1  <0>         0.0345
     14 C14        -5.6410   57.1935   33.3271 C.ar    1  <0>         0.0345
     15 C15        -8.6795   61.4034   33.9701 C.2     1  <0>         0.0988
     16 C16        -8.0608   60.1789   34.3951 C.2     1  <0>         0.0988
     17 C17        -8.4975   62.5972   34.5648 C.2     1  <0>         0.0824
     18 C18        -7.5589   59.2788   33.5112 C.2     1  <0>         0.0824
     19 N1        -10.5777   66.7475   34.7875 N.pl3   1  <0>        -0.3571
     20 N2         -4.4539   57.8588   35.3494 N.pl3   1  <0>        -0.3571
     21 N3         -7.4733   63.0089   35.3826 N.pl3   1  <0>        -0.3516
     22 N4         -7.2682   59.4665   32.1528 N.pl3   1  <0>        -0.3516
     23 N5        -10.8007   61.1211   32.5416 N.1     1  <0>        -0.1908
     24 N6         -8.5127   59.5875   36.8861 N.1     1  <0>        -0.1908
     25 S1         -9.7113   63.8694   34.3440 S.3     1  <0>        -0.0715
     26 S2         -7.1881   57.6477   33.9797 S.3     1  <0>        -0.0715
     27 H1         -7.2239   68.5669   32.3605 H       1  <0>         0.0618
     28 H2         -2.2792   56.0918   31.7695 H       1  <0>         0.0618
     29 H3         -6.2550   66.3323   31.8458 H       1  <0>         0.0618
     30 H4         -4.3818   55.8278   30.4927 H       1  <0>         0.0618
     31 H5         -9.2586   68.7580   33.7614 H       1  <0>         0.0636
     32 H6         -2.2976   57.0371   34.0814 H       1  <0>         0.0636
     33 H7         -7.3451   64.2747   32.7102 H       1  <0>         0.0629
     34 H8         -6.5273   56.5254   31.4830 H       1  <0>         0.0629
     35 H9        -10.9007   65.8421   35.0630 H       1  <0>         0.1424
     36 H10       -10.3644   67.2872   35.6019 H       1  <0>         0.1424
     37 H11        -5.3918   58.0942   35.6042 H       1  <0>         0.1424
     38 H12        -4.0935   57.1832   35.9925 H       1  <0>         0.1424
     39 H13        -7.8357   63.6110   36.0942 H       1  <0>         0.1428
     40 H14        -7.0449   62.2113   35.8074 H       1  <0>         0.1428
     41 H15        -6.7278   58.6949   31.8174 H       1  <0>         0.1428
     42 H16        -8.1214   59.5259   31.6346 H       1  <0>         0.1428
@<TRIPOS>BOND
     1     1     3   ar
     2     1     5   ar
     3     2     4   ar
     4     2     6   ar
     5     3     7   ar
     6     4     8   ar
     7     5    11   ar
     8     6    12   ar
     9     7    13   ar
    10     8    14   ar
    11     9    15    1
    12     9    23    3
    13    10    16    1
    14    10    24    3
    15    11    13   ar
    16    11    19    1
    17    12    14   ar
    18    12    20    1
    19    13    25    1
    20    14    26    1
    21    15    16    1
    22    15    17    2
    23    16    18    2
    24    17    21    1
    25    17    25    1
    26    18    22    1
    27    18    26    1
    28     1    27    1
    29     2    28    1
    30     3    29    1
    31     4    30    1
    32     5    31    1
    33     6    32    1
    34     7    33    1
    35     8    34    1
    36    19    35    1
    37    19    36    1
    38    20    37    1
    39    20    38    1
    40    21    39    1
    41    21    40    1
    42    22    41    1
    43    22    42    1
@<TRIPOS>SUBSTRUCTURE
     1 <0>         1 TEMP              0 ****  ****    0 ROOT

