
##########                                Name:          5BM_1_3EQH
##########                    Molecular_Weight:             380.497
##########                DOCK_Rotatable_Bonds:                   9
##########                       Formal_Charge:        -0.000399947
##########                     HBond_Acceptors:                   8
##########                        HBond_Donors:                   8
##########                         Heavy_Atoms:                  26
##########                            HA_RMSDs:               8.746
##########                            HA_RMSDh:               1.850
##########                            HA_RMSDm:               1.615
##########                          Grid_Score:          -44.736458
##########                     Grid_vdw_energy:          -45.100277
##########                      Grid_es_energy:            0.363820
##########           Internal_energy_repulsive:            7.007305

@<TRIPOS>MOLECULE
5BM_1_3EQH
 42 43 1 0 0
SMALL
USER_CHARGES


@<TRIPOS>ATOM
      1 C1          2.1329   62.9455   33.2226 C.ar    1  <0>        -0.0600
      2 C2         -7.4973   54.5916   31.0519 C.ar    1  <0>        -0.0600
      3 C3          0.9144   62.3443   32.8328 C.ar    1  <0>        -0.0606
      4 C4         -7.5178   54.6228   32.4548 C.ar    1  <0>        -0.0606
      5 C5          2.8745   62.4226   34.2898 C.ar    1  <0>        -0.0400
      6 C6         -6.2711   54.5192   30.3374 C.ar    1  <0>        -0.0400
      7 C7          0.4353   61.2187   33.5210 C.ar    1  <0>        -0.0462
      8 C8         -6.3310   54.5926   33.1663 C.ar    1  <0>        -0.0462
      9 C9         -2.0713   58.1189   35.5252 C.1     1  <0>         0.1029
     10 C10        -0.7886   55.2833   33.9472 C.1     1  <0>         0.1029
     11 C11         2.3991   61.2900   34.9894 C.ar    1  <0>         0.0385
     12 C12        -5.0565   54.4897   31.0522 C.ar    1  <0>         0.0385
     13 C13         1.1757   60.6813   34.5950 C.ar    1  <0>         0.0345
     14 C14        -5.1103   54.5370   32.4866 C.ar    1  <0>         0.0345
     15 C15        -1.2889   57.5908   34.4562 C.2     1  <0>         0.0988
     16 C16        -1.7471   56.3404   33.9184 C.2     1  <0>         0.0988
     17 C17        -0.0343   58.0620   34.3307 C.2     1  <0>         0.0824
     18 C18        -3.0622   56.0901   33.6922 C.2     1  <0>         0.0824
     19 N1          3.1256   60.8057   36.0096 N.pl3   1  <0>        -0.3571
     20 N2         -3.8890   54.4207   30.3803 N.pl3   1  <0>        -0.3571
     21 N3          0.9293   57.7225   33.4121 N.pl3   1  <0>        -0.3516
     22 N4         -4.1213   57.0062   33.6308 N.pl3   1  <0>        -0.3516
     23 N5         -2.7061   58.5403   36.3823 N.1     1  <0>        -0.1908
     24 N6          0.0428   54.4558   33.9807 N.1     1  <0>        -0.1908
     25 S1          0.5569   59.2709   35.4838 S.3     1  <0>        -0.0715
     26 S2         -3.6541   54.4771   33.4361 S.3     1  <0>        -0.0715
     27 H1          2.4949   63.8147   32.6936 H       1  <0>         0.0618
     28 H2         -8.4289   54.6232   30.5063 H       1  <0>         0.0618
     29 H3          0.3519   62.7511   32.0054 H       1  <0>         0.0618
     30 H4         -8.4605   54.6703   32.9797 H       1  <0>         0.0618
     31 H5          3.8077   62.8838   34.5775 H       1  <0>         0.0636
     32 H6         -6.2699   54.4870   29.2579 H       1  <0>         0.0636
     33 H7         -0.4997   60.7641   33.2285 H       1  <0>         0.0629
     34 H8         -6.3478   54.6119   34.2460 H       1  <0>         0.0629
     35 H9          2.6629   60.0103   36.4010 H       1  <0>         0.1424
     36 H10         4.0289   60.5351   35.6765 H       1  <0>         0.1424
     37 H11        -3.1297   54.4084   31.0310 H       1  <0>         0.1424
     38 H12        -3.8700   53.5859   29.8303 H       1  <0>         0.1424
     39 H13         1.7149   58.3334   33.5111 H       1  <0>         0.1428
     40 H14         1.2198   56.7783   33.5675 H       1  <0>         0.1428
     41 H15        -4.9909   56.5125   33.6451 H       1  <0>         0.1428
     42 H16        -4.0751   57.6222   34.4170 H       1  <0>         0.1428
@<TRIPOS>BOND
     1     1     3   ar
     2     1     5   ar
     3     2     4   ar
     4     2     6   ar
     5     3     7   ar
     6     4     8   ar
     7     5    11   ar
     8     6    12   ar
     9     7    13   ar
    10     8    14   ar
    11     9    15    1
    12     9    23    3
    13    10    16    1
    14    10    24    3
    15    11    13   ar
    16    11    19    1
    17    12    14   ar
    18    12    20    1
    19    13    25    1
    20    14    26    1
    21    15    16    1
    22    15    17    2
    23    16    18    2
    24    17    21    1
    25    17    25    1
    26    18    22    1
    27    18    26    1
    28     1    27    1
    29     2    28    1
    30     3    29    1
    31     4    30    1
    32     5    31    1
    33     6    32    1
    34     7    33    1
    35     8    34    1
    36    19    35    1
    37    19    36    1
    38    20    37    1
    39    20    38    1
    40    21    39    1
    41    21    40    1
    42    22    41    1
    43    22    42    1
@<TRIPOS>SUBSTRUCTURE
     1 <0>         1 TEMP              0 ****  ****    0 ROOT

