
##########                                Name:          5BM_1_3EQH
##########                    Molecular_Weight:             380.497
##########                DOCK_Rotatable_Bonds:                   9
##########                       Formal_Charge:        -0.000399947
##########                     HBond_Acceptors:                   8
##########                        HBond_Donors:                   8
##########                         Heavy_Atoms:                  26
##########                            HA_RMSDs:              10.245
##########                            HA_RMSDh:               7.568
##########                            HA_RMSDm:               7.042
##########                          Grid_Score:          -46.994026
##########                     Grid_vdw_energy:          -46.120762
##########                      Grid_es_energy:           -0.873262
##########           Internal_energy_repulsive:            7.043494

@<TRIPOS>MOLECULE
5BM_1_3EQH
 42 43 1 0 0
SMALL
USER_CHARGES


@<TRIPOS>ATOM
      1 C1        -10.0796   63.0000   33.0028 C.ar    1  <0>        -0.0600
      2 C2         -7.0332   51.0651   29.0592 C.ar    1  <0>        -0.0600
      3 C3        -10.1531   61.7682   32.3132 C.ar    1  <0>        -0.0606
      4 C4         -7.7104   50.7891   30.2570 C.ar    1  <0>        -0.0606
      5 C5         -9.5819   63.0538   34.3111 C.ar    1  <0>        -0.0400
      6 C6         -6.0305   52.0702   28.9980 C.ar    1  <0>        -0.0400
      7 C7         -9.7322   60.5857   32.9414 C.ar    1  <0>        -0.0462
      8 C8         -7.4132   51.5066   31.4027 C.ar    1  <0>        -0.0462
      9 C9         -8.7427   56.2579   35.0579 C.1     1  <0>         0.1029
     10 C10        -5.5919   56.2199   33.6797 C.1     1  <0>         0.1029
     11 C11        -9.1569   61.8678   34.9522 C.ar    1  <0>         0.0385
     12 C12        -5.7212   52.8082   30.1586 C.ar    1  <0>         0.0385
     13 C13        -9.2258   60.6286   34.2576 C.ar    1  <0>         0.0345
     14 C14        -6.4415   52.5114   31.3651 C.ar    1  <0>         0.0345
     15 C15        -7.9195   56.7724   34.0131 C.2     1  <0>         0.0988
     16 C16        -6.9559   55.8508   33.4792 C.2     1  <0>         0.0988
     17 C17        -7.8330   58.1118   33.9110 C.2     1  <0>         0.0824
     18 C18        -7.2944   54.5926   33.0978 C.2     1  <0>         0.0824
     19 N1         -8.6838   61.9424   36.2068 N.pl3   1  <0>        -0.3571
     20 N2         -4.7704   53.7634   30.1076 N.pl3   1  <0>        -0.3571
     21 N3         -7.1107   58.8664   33.0186 N.pl3   1  <0>        -0.3516
     22 N4         -8.5743   54.0735   32.8586 N.pl3   1  <0>        -0.3516
     23 N5         -9.4038   55.8377   35.8954 N.1     1  <0>        -0.1908
     24 N6         -4.4892   56.5796   33.8578 N.1     1  <0>        -0.1908
     25 S1         -8.7163   59.1277   35.0636 S.3     1  <0>        -0.0715
     26 S2         -6.0953   53.3619   32.8425 S.3     1  <0>        -0.0715
     27 H1        -10.4096   63.9065   32.5172 H       1  <0>         0.0618
     28 H2         -7.2782   50.5044   28.1693 H       1  <0>         0.0618
     29 H3        -10.5332   61.7369   31.3027 H       1  <0>         0.0618
     30 H4         -8.4641   50.0161   30.2849 H       1  <0>         0.0618
     31 H5         -9.5230   63.9997   34.8290 H       1  <0>         0.0636
     32 H6         -5.5108   52.2666   28.0719 H       1  <0>         0.0636
     33 H7         -9.7959   59.6434   32.4176 H       1  <0>         0.0629
     34 H8         -7.9315   51.2905   32.3252 H       1  <0>         0.0629
     35 H9         -8.4258   61.0288   36.5211 H       1  <0>         0.1424
     36 H10        -7.8823   62.5400   36.2257 H       1  <0>         0.1424
     37 H11        -4.6750   54.1878   31.0081 H       1  <0>         0.1424
     38 H12        -3.8992   53.3523   29.8391 H       1  <0>         0.1424
     39 H13        -6.9953   59.7915   33.3804 H       1  <0>         0.1428
     40 H14        -6.2128   58.4487   32.8794 H       1  <0>         0.1428
     41 H15        -8.4948   53.1763   32.4241 H       1  <0>         0.1428
     42 H16        -9.0639   53.9815   33.7256 H       1  <0>         0.1428
@<TRIPOS>BOND
     1     1     3   ar
     2     1     5   ar
     3     2     4   ar
     4     2     6   ar
     5     3     7   ar
     6     4     8   ar
     7     5    11   ar
     8     6    12   ar
     9     7    13   ar
    10     8    14   ar
    11     9    15    1
    12     9    23    3
    13    10    16    1
    14    10    24    3
    15    11    13   ar
    16    11    19    1
    17    12    14   ar
    18    12    20    1
    19    13    25    1
    20    14    26    1
    21    15    16    1
    22    15    17    2
    23    16    18    2
    24    17    21    1
    25    17    25    1
    26    18    22    1
    27    18    26    1
    28     1    27    1
    29     2    28    1
    30     3    29    1
    31     4    30    1
    32     5    31    1
    33     6    32    1
    34     7    33    1
    35     8    34    1
    36    19    35    1
    37    19    36    1
    38    20    37    1
    39    20    38    1
    40    21    39    1
    41    21    40    1
    42    22    41    1
    43    22    42    1
@<TRIPOS>SUBSTRUCTURE
     1 <0>         1 TEMP              0 ****  ****    0 ROOT

