
##########                                Name:          5BM_1_3EQH
##########                    Molecular_Weight:             380.497
##########                DOCK_Rotatable_Bonds:                   9
##########                       Formal_Charge:        -0.000399947
##########                     HBond_Acceptors:                   8
##########                        HBond_Donors:                   8
##########                         Heavy_Atoms:                  26
##########                            HA_RMSDs:               8.828
##########                            HA_RMSDh:               1.576
##########                            HA_RMSDm:               1.376
##########                          Grid_Score:          -48.111862
##########                     Grid_vdw_energy:          -47.776264
##########                      Grid_es_energy:           -0.335597
##########           Internal_energy_repulsive:            6.595100

@<TRIPOS>MOLECULE
5BM_1_3EQH
 42 43 1 0 0
SMALL
USER_CHARGES


@<TRIPOS>ATOM
      1 C1          2.3717   63.4084   33.0651 C.ar    1  <0>        -0.0600
      2 C2         -7.2214   54.2652   30.8902 C.ar    1  <0>        -0.0600
      3 C3          1.0894   63.0318   32.6045 C.ar    1  <0>        -0.0606
      4 C4         -7.2740   54.4874   32.2749 C.ar    1  <0>        -0.0606
      5 C5          2.9399   62.7790   34.1801 C.ar    1  <0>        -0.0400
      6 C6         -5.9779   54.1655   30.2098 C.ar    1  <0>        -0.0400
      7 C7          0.3724   62.0249   33.2695 C.ar    1  <0>        -0.0462
      8 C8         -6.1030   54.6229   33.0002 C.ar    1  <0>        -0.0462
      9 C9         -2.2783   58.4321   35.5653 C.1     1  <0>         0.1029
     10 C10        -0.7197   55.9579   33.7556 C.1     1  <0>         0.1029
     11 C11         2.2246   61.7648   34.8568 C.ar    1  <0>         0.0385
     12 C12        -4.7792   54.3038   30.9386 C.ar    1  <0>         0.0385
     13 C13         0.9365   61.3816   34.3913 C.ar    1  <0>         0.0345
     14 C14        -4.8667   54.5444   32.3518 C.ar    1  <0>         0.0345
     15 C15        -1.5745   58.1342   34.3613 C.2     1  <0>         0.0988
     16 C16        -1.8406   56.8402   33.7977 C.2     1  <0>         0.0988
     17 C17        -0.4779   58.8698   34.1002 C.2     1  <0>         0.0824
     18 C18        -3.1042   56.3800   33.6106 C.2     1  <0>         0.0824
     19 N1          2.7881   61.1752   35.9237 N.pl3   1  <0>        -0.3571
     20 N2         -3.5954   54.2100   30.2991 N.pl3   1  <0>        -0.3571
     21 N3          0.3849   58.7880   33.0342 N.pl3   1  <0>        -0.3516
     22 N4         -4.3023   57.1075   33.6189 N.pl3   1  <0>        -0.3516
     23 N5         -2.8494   58.6673   36.5316 N.1     1  <0>        -0.1908
     24 N6          0.2382   55.2803   33.7306 N.1     1  <0>        -0.1908
     25 S1          0.0184   60.1238   35.2499 S.3     1  <0>        -0.0715
     26 S2         -3.4303   54.6986   33.3208 S.3     1  <0>        -0.0715
     27 H1          2.9174   64.1874   32.5534 H       1  <0>         0.0618
     28 H2         -8.1412   54.1684   30.3326 H       1  <0>         0.0618
     29 H3          0.6613   63.5188   31.7408 H       1  <0>         0.0618
     30 H4         -8.2290   54.5527   32.7750 H       1  <0>         0.0618
     31 H5          3.9228   63.0680   34.5220 H       1  <0>         0.0636
     32 H6         -5.9514   53.9856   29.1452 H       1  <0>         0.0636
     33 H7         -0.6106   61.7427   32.9226 H       1  <0>         0.0629
     34 H8         -6.1442   54.7893   34.0666 H       1  <0>         0.0629
     35 H9          2.1652   60.4846   36.2911 H       1  <0>         0.1424
     36 H10         3.6450   60.7388   35.6494 H       1  <0>         0.1424
     37 H11        -2.8508   54.3305   30.9557 H       1  <0>         0.1424
     38 H12        -3.5189   53.3100   29.8701 H       1  <0>         0.1424
     39 H13         1.1325   59.4403   33.1590 H       1  <0>         0.1428
     40 H14         0.7570   57.8616   32.9770 H       1  <0>         0.1428
     41 H15        -5.0634   56.4996   33.3927 H       1  <0>         0.1428
     42 H16        -4.4478   57.4995   34.5272 H       1  <0>         0.1428
@<TRIPOS>BOND
     1     1     3   ar
     2     1     5   ar
     3     2     4   ar
     4     2     6   ar
     5     3     7   ar
     6     4     8   ar
     7     5    11   ar
     8     6    12   ar
     9     7    13   ar
    10     8    14   ar
    11     9    15    1
    12     9    23    3
    13    10    16    1
    14    10    24    3
    15    11    13   ar
    16    11    19    1
    17    12    14   ar
    18    12    20    1
    19    13    25    1
    20    14    26    1
    21    15    16    1
    22    15    17    2
    23    16    18    2
    24    17    21    1
    25    17    25    1
    26    18    22    1
    27    18    26    1
    28     1    27    1
    29     2    28    1
    30     3    29    1
    31     4    30    1
    32     5    31    1
    33     6    32    1
    34     7    33    1
    35     8    34    1
    36    19    35    1
    37    19    36    1
    38    20    37    1
    39    20    38    1
    40    21    39    1
    41    21    40    1
    42    22    41    1
    43    22    42    1
@<TRIPOS>SUBSTRUCTURE
     1 <0>         1 TEMP              0 ****  ****    0 ROOT

