
##########                                Name:          5BM_1_3EQH
##########                    Molecular_Weight:             380.497
##########                DOCK_Rotatable_Bonds:                   9
##########                       Formal_Charge:        -0.000399947
##########                     HBond_Acceptors:                   8
##########                        HBond_Donors:                   8
##########                         Heavy_Atoms:                  26
##########                            HA_RMSDs:               8.807
##########                            HA_RMSDh:               1.685
##########                            HA_RMSDm:               1.501
##########                          Grid_Score:          -48.757393
##########                     Grid_vdw_energy:          -48.699615
##########                      Grid_es_energy:           -0.057775
##########           Internal_energy_repulsive:            7.206739

@<TRIPOS>MOLECULE
5BM_1_3EQH
 42 43 1 0 0
SMALL
USER_CHARGES


@<TRIPOS>ATOM
      1 C1          2.1301   63.6340   33.1191 C.ar    1  <0>        -0.0600
      2 C2         -7.4393   54.3638   31.6777 C.ar    1  <0>        -0.0600
      3 C3          0.9667   62.9989   32.6279 C.ar    1  <0>        -0.0606
      4 C4         -7.1245   54.0903   33.0177 C.ar    1  <0>        -0.0606
      5 C5          2.7698   63.1550   34.2695 C.ar    1  <0>        -0.0400
      6 C6         -6.4357   54.7654   30.7554 C.ar    1  <0>        -0.0400
      7 C7          0.4399   61.8835   33.2976 C.ar    1  <0>        -0.0462
      8 C8         -5.8206   54.2191   33.4636 C.ar    1  <0>        -0.0462
      9 C9         -2.0684   58.5241   35.3434 C.1     1  <0>         0.1029
     10 C10        -0.4505   55.8845   33.7447 C.1     1  <0>         0.1029
     11 C11         2.2457   62.0331   34.9513 C.ar    1  <0>         0.0385
     12 C12        -5.1047   54.9015   31.1994 C.ar    1  <0>         0.0385
     13 C13         1.0781   61.3902   34.4552 C.ar    1  <0>         0.0345
     14 C14        -4.8172   54.6278   32.5797 C.ar    1  <0>         0.0345
     15 C15        -1.2275   58.1107   34.2684 C.2     1  <0>         0.0988
     16 C16        -1.5277   56.8202   33.7141 C.2     1  <0>         0.0988
     17 C17        -0.0409   58.7352   34.1499 C.2     1  <0>         0.0824
     18 C18        -2.8012   56.4174   33.4706 C.2     1  <0>         0.0824
     19 N1          2.8746   61.5911   36.0524 N.pl3   1  <0>        -0.3571
     20 N2         -4.1472   55.2820   30.3293 N.pl3   1  <0>        -0.3571
     21 N3          0.9565   58.5295   33.2278 N.pl3   1  <0>        -0.3516
     22 N4         -3.9613   57.2014   33.4050 N.pl3   1  <0>        -0.3516
     23 N5         -2.7498   58.8525   36.2054 N.1     1  <0>        -0.1908
     24 N6          0.4733   55.1615   33.7804 N.1     1  <0>        -0.1908
     25 S1          0.3970   59.9931   35.3190 S.3     1  <0>        -0.0715
     26 S2         -3.1940   54.7481   33.1933 S.3     1  <0>        -0.0715
     27 H1          2.5287   64.4952   32.6035 H       1  <0>         0.0618
     28 H2         -8.4613   54.2674   31.3419 H       1  <0>         0.0618
     29 H3          0.4831   63.3718   31.7371 H       1  <0>         0.0618
     30 H4         -7.9003   53.7790   33.7015 H       1  <0>         0.0618
     31 H5          3.6619   63.6420   34.6350 H       1  <0>         0.0636
     32 H6         -6.6901   54.9644   29.7247 H       1  <0>         0.0636
     33 H7         -0.4535   61.4031   32.9271 H       1  <0>         0.0629
     34 H8         -5.5782   54.0040   34.4939 H       1  <0>         0.0629
     35 H9          2.3882   60.7980   36.4189 H       1  <0>         0.1424
     36 H10         3.8110   61.3291   35.8188 H       1  <0>         0.1424
     37 H11        -3.2669   55.3296   30.8014 H       1  <0>         0.1424
     38 H12        -4.0903   54.6171   29.5846 H       1  <0>         0.1424
     39 H13         1.8082   58.9337   33.5615 H       1  <0>         0.1428
     40 H14         1.0854   57.5474   33.0900 H       1  <0>         0.1428
     41 H15        -4.7260   56.6402   33.0886 H       1  <0>         0.1428
     42 H16        -4.1688   57.5659   34.3128 H       1  <0>         0.1428
@<TRIPOS>BOND
     1     1     3   ar
     2     1     5   ar
     3     2     4   ar
     4     2     6   ar
     5     3     7   ar
     6     4     8   ar
     7     5    11   ar
     8     6    12   ar
     9     7    13   ar
    10     8    14   ar
    11     9    15    1
    12     9    23    3
    13    10    16    1
    14    10    24    3
    15    11    13   ar
    16    11    19    1
    17    12    14   ar
    18    12    20    1
    19    13    25    1
    20    14    26    1
    21    15    16    1
    22    15    17    2
    23    16    18    2
    24    17    21    1
    25    17    25    1
    26    18    22    1
    27    18    26    1
    28     1    27    1
    29     2    28    1
    30     3    29    1
    31     4    30    1
    32     5    31    1
    33     6    32    1
    34     7    33    1
    35     8    34    1
    36    19    35    1
    37    19    36    1
    38    20    37    1
    39    20    38    1
    40    21    39    1
    41    21    40    1
    42    22    41    1
    43    22    42    1
@<TRIPOS>SUBSTRUCTURE
     1 <0>         1 TEMP              0 ****  ****    0 ROOT

