
##########                                Name:        KEU_510_1NJS
##########                    Molecular_Weight:             543.456
##########                DOCK_Rotatable_Bonds:                  18
##########                       Formal_Charge:             -2.0001
##########                     HBond_Acceptors:                  16
##########                        HBond_Donors:                   8
##########                         Heavy_Atoms:                  38
##########                            HA_RMSDs:               8.052
##########                            HA_RMSDh:               7.331
##########                            HA_RMSDm:               6.670
##########                          Grid_Score:           15.687206
##########                     Grid_vdw_energy:          -50.754749
##########                      Grid_es_energy:           66.441956
##########           Internal_energy_repulsive:           19.379818

@<TRIPOS>MOLECULE
KEU_510_1NJS
 62 63 1 0 0
SMALL
USER_CHARGES


@<TRIPOS>ATOM
      1 C1         73.5715   21.7698   32.5419 C.ar    1  <0>        -0.0574
      2 C2         72.7049   23.9361   31.3526 C.ar    1  <0>        -0.0574
      3 C3         73.6052   22.5048   33.7800 C.ar    1  <0>        -0.0494
      4 C4         72.7288   24.6475   32.5767 C.ar    1  <0>        -0.0494
      5 C5         70.7014   20.7750   29.3750 C.3     1  <0>        -0.0481
      6 C6         69.4529   20.5830   28.4369 C.3     1  <0>        -0.0195
      7 C7         71.5542   22.2382   29.2104 C.3     1  <0>        -0.0407
      8 C8         71.6209   27.5330   36.4062 C.3     1  <0>        -0.0241
      9 C9         72.5672   28.2780   35.4674 C.3     1  <0>        -0.0112
     10 C10        73.0931   22.5171   31.2815 C.ar    1  <0>        -0.0388
     11 C11        73.1716   23.9352   33.8092 C.ar    1  <0>         0.0367
     12 C12        68.9541   19.2798   28.9794 C.2     1  <0>         0.0541
     13 C13        68.1381   18.7376   30.0790 C.2     1  <0>         0.1277
     14 C14        69.4045   18.3031   28.1775 C.2     1  <0>         0.2495
     15 C15        68.3629   16.3861   29.4306 C.2     1  <0>         0.1858
     16 C16        72.9138   21.8424   29.8130 C.3     1  <0>         0.0469
     17 C17        72.0732   26.1521   36.7342 C.3     1  <0>         0.0632
     18 C18        72.2197   29.7005   35.2890 C.2     1  <0>         0.0418
     19 C19        73.1767   24.5657   35.1055 C.2     1  <0>         0.2446
     20 C20        71.1305   25.3051   37.6993 C.2     1  <0>         0.0620
     21 C21        73.9941   21.9608   28.6713 C.3     1  <0>         0.2699
     22 C22        74.5927   23.3545   28.3741 C.3     1  <0>         0.4445
     23 N1         67.5652   19.5692   31.0140 N.pl3   1  <0>        -0.3427
     24 N2         68.0670   15.1040   29.6874 N.pl3   1  <0>        -0.3307
     25 N3         69.1246   16.7263   28.3641 N.am    1  <0>        -0.2544
     26 N4         67.8990   17.2846   30.1829 N.2     1  <0>        -0.2032
     27 N5         72.1869   25.4960   35.3784 N.am    1  <0>        -0.3034
     28 O1         75.2448   21.4215   29.5075 O.3     1  <0>        -0.3577
     29 O2         73.9633   21.1714   27.8157 O.3     1  <0>        -0.3577
     30 O3         73.0265   30.2572   34.4069 O.co2   1  <0>        -0.5498
     31 O4         70.4318   24.2115   37.2328 O.co2   1  <0>        -0.5479
     32 O5         70.1943   18.2901   27.0190 O.2     1  <0>        -0.2700
     33 O6         71.3044   30.2580   35.8998 O.co2   1  <0>        -0.5498
     34 O7         74.0059   24.2554   35.9312 O.2     1  <0>        -0.2702
     35 O8         71.0372   25.6472   38.8672 O.co2   1  <0>        -0.5479
     36 F1         75.6801   23.2175   27.5969 F       1  <0>        -0.1654
     37 F2         73.5698   23.9129   27.7364 F       1  <0>        -0.1654
     38 F3         74.8682   24.2304   29.4138 F       1  <0>        -0.1654
     39 H1         73.8703   20.7328   32.4982 H       1  <0>         0.0621
     40 H2         72.3954   24.4450   30.4517 H       1  <0>         0.0621
     41 H3         73.9433   22.0234   34.6858 H       1  <0>         0.0625
     42 H4         72.4323   25.6853   32.6167 H       1  <0>         0.0625
     43 H5         70.3399   20.7237   30.4126 H       1  <0>         0.0269
     44 H6         71.4057   19.9606   29.1502 H       1  <0>         0.0269
     45 H7         68.7180   21.3970   28.5227 H       1  <0>         0.0316
     46 H8         69.7166   20.5351   27.3701 H       1  <0>         0.0316
     47 H9         71.6357   22.5634   28.1628 H       1  <0>         0.0273
     48 H10        71.0775   23.0676   29.7535 H       1  <0>         0.0273
     49 H11        71.5511   28.1025   37.3448 H       1  <0>         0.0290
     50 H12        70.6378   27.4643   35.9177 H       1  <0>         0.0290
     51 H13        73.5816   28.2234   35.8894 H       1  <0>         0.0325
     52 H14        72.5276   27.7895   34.4827 H       1  <0>         0.0325
     53 H15        73.0374   20.7911   30.1123 H       1  <0>         0.0404
     54 H16        73.0057   26.1966   37.3160 H       1  <0>         0.0560
     55 H17        66.9052   19.0532   31.5599 H       1  <0>         0.1437
     56 H18        68.2765   19.9379   31.6123 H       1  <0>         0.1437
     57 H19        67.3890   15.0585   30.4211 H       1  <0>         0.1449
     58 H20        67.6956   14.6763   28.8634 H       1  <0>         0.1449
     59 H21        69.4903   16.0430   27.7323 H       1  <0>         0.1578
     60 H22        71.5330   25.7385   34.6617 H       1  <0>         0.1496
     61 H23        75.9135   21.1071   28.9106 H       1  <0>         0.2130
     62 H24        74.6075   21.3951   27.1544 H       1  <0>         0.2130
@<TRIPOS>BOND
     1     1     3   ar
     2     1    10   ar
     3     2     4   ar
     4     2    10   ar
     5     3    11   ar
     6     4    11   ar
     7     5     6    1
     8     5     7    1
     9     6    12    1
    10     7    16    1
    11     8     9    1
    12     8    17    1
    13     9    18    1
    14    10    16    1
    15    11    19    1
    16    12    13    2
    17    12    14    1
    18    13    23    1
    19    13    26    1
    20    14    25   am
    21    14    32    2
    22    15    24    1
    23    15    25    1
    24    15    26    2
    25    16    21    1
    26    17    20    1
    27    17    27    1
    28    18    30    1
    29    18    33    2
    30    19    27   am
    31    19    34    2
    32    20    31    1
    33    20    35    2
    34    21    22    1
    35    21    28    1
    36    21    29    1
    37    22    36    1
    38    22    37    1
    39    22    38    1
    40     1    39    1
    41     2    40    1
    42     3    41    1
    43     4    42    1
    44     5    43    1
    45     5    44    1
    46     6    45    1
    47     6    46    1
    48     7    47    1
    49     7    48    1
    50     8    49    1
    51     8    50    1
    52     9    51    1
    53     9    52    1
    54    16    53    1
    55    17    54    1
    56    23    55    1
    57    23    56    1
    58    24    57    1
    59    24    58    1
    60    25    59    1
    61    27    60    1
    62    28    61    1
    63    29    62    1
@<TRIPOS>SUBSTRUCTURE
     1 <0>         1 TEMP              0 ****  ****    0 ROOT

