
##########                                Name:        KEU_510_1NJS
##########                    Molecular_Weight:             543.456
##########                DOCK_Rotatable_Bonds:                  18
##########                       Formal_Charge:             -2.0001
##########                     HBond_Acceptors:                  16
##########                        HBond_Donors:                   8
##########                         Heavy_Atoms:                  38
##########                            HA_RMSDs:               0.772
##########                            HA_RMSDh:               0.772
##########                            HA_RMSDm:               0.767
##########                          Grid_Score:           16.255314
##########                     Grid_vdw_energy:          -56.427319
##########                      Grid_es_energy:           72.682632
##########           Internal_energy_repulsive:           20.641232

@<TRIPOS>MOLECULE
KEU_510_1NJS
 62 63 1 0 0
SMALL
USER_CHARGES


@<TRIPOS>ATOM
      1 C1         72.5796   24.2139   31.9211 C.ar    1  <0>        -0.0574
      2 C2         73.3024   21.7082   31.6808 C.ar    1  <0>        -0.0574
      3 C3         72.9800   24.1607   33.3035 C.ar    1  <0>        -0.0494
      4 C4         73.7057   21.6686   33.0376 C.ar    1  <0>        -0.0494
      5 C5         74.3699   23.7289   28.1970 C.3     1  <0>        -0.0481
      6 C6         75.0633   23.6882   26.7853 C.3     1  <0>        -0.0195
      7 C7         73.6658   22.2771   28.7370 C.3     1  <0>        -0.0407
      8 C8         75.2653   20.4873   37.5304 C.3     1  <0>        -0.0241
      9 C9         73.8666   19.9662   37.8526 C.3     1  <0>        -0.0112
     10 C10        72.7579   22.9364   31.0771 C.ar    1  <0>        -0.0388
     11 C11        73.5572   22.9006   33.8639 C.ar    1  <0>         0.0367
     12 C12        76.3603   24.3437   27.1455 C.2     1  <0>         0.0541
     13 C13        77.6780   24.0283   27.7226 C.2     1  <0>         0.1277
     14 C14        76.2690   25.6409   26.8158 C.2     1  <0>         0.2495
     15 C15        78.5753   26.3027   27.5727 C.2     1  <0>         0.1858
     16 C16        72.4370   22.8206   29.4873 C.3     1  <0>         0.0469
     17 C17        75.2892   21.9243   37.1386 C.3     1  <0>         0.0632
     18 C18        73.8600   18.8700   38.8398 C.2     1  <0>         0.0418
     19 C19        73.9901   22.9657   35.2374 C.2     1  <0>         0.2446
     20 C20        76.7068   22.6499   37.1816 C.2     1  <0>         0.0620
     21 C21        71.1652   22.0861   28.9150 C.3     1  <0>         0.2699
     22 C22        70.6899   20.7944   29.6181 C.3     1  <0>         0.4445
     23 N1         77.9906   22.7481   28.1195 N.pl3   1  <0>        -0.3427
     24 N2         79.6031   27.1347   27.7928 N.pl3   1  <0>        -0.3307
     25 N3         77.4225   26.7486   27.0201 N.am    1  <0>        -0.2544
     26 N4         78.7016   25.0827   27.8628 N.2     1  <0>        -0.2032
     27 N5         74.7339   21.9075   35.7340 N.am    1  <0>        -0.3034
     28 O1         70.0601   23.0409   29.5641 O.3     1  <0>        -0.3577
     29 O2         70.9225   22.2295   27.7850 O.3     1  <0>        -0.3577
     30 O3         72.6236   18.6008   39.2102 O.co2   1  <0>        -0.5498
     31 O4         77.0909   23.5224   36.1851 O.co2   1  <0>        -0.5479
     32 O5         75.2572   26.4241   26.2422 O.2     1  <0>        -0.2700
     33 O6         74.8842   18.3135   39.2438 O.co2   1  <0>        -0.5498
     34 O7         73.7334   23.9375   35.9122 O.2     1  <0>        -0.2702
     35 O8         77.4514   22.4148   38.1197 O.co2   1  <0>        -0.5479
     36 F1         69.5191   20.4019   29.0884 F       1  <0>        -0.1654
     37 F2         71.6941   19.9815   29.3094 F       1  <0>        -0.1654
     38 F3         70.6182   20.7407   31.0024 F       1  <0>        -0.1654
     39 H1         72.1695   25.1160   31.4915 H       1  <0>         0.0621
     40 H2         73.3962   20.8187   31.0755 H       1  <0>         0.0621
     41 H3         72.8635   25.0296   33.9342 H       1  <0>         0.0625
     42 H4         74.1126   20.7642   33.4652 H       1  <0>         0.0625
     43 H5         75.1404   24.0096   28.9303 H       1  <0>         0.0269
     44 H6         73.5679   24.4798   28.1442 H       1  <0>         0.0269
     45 H7         75.1883   22.6678   26.3940 H       1  <0>         0.0316
     46 H8         74.5028   24.2338   26.0120 H       1  <0>         0.0316
     47 H9         73.3919   21.6074   27.9084 H       1  <0>         0.0273
     48 H10        74.3372   21.6998   29.3896 H       1  <0>         0.0273
     49 H11        75.8907   20.3665   38.4272 H       1  <0>         0.0290
     50 H12        75.6660   19.8974   36.6929 H       1  <0>         0.0290
     51 H13        73.2765   20.7994   38.2619 H       1  <0>         0.0325
     52 H14        73.4178   19.5911   36.9210 H       1  <0>         0.0325
     53 H15        72.1712   23.8730   29.3086 H       1  <0>         0.0404
     54 H16        74.7138   22.5158   37.8660 H       1  <0>         0.0560
     55 H17        78.9779   22.6737   28.2594 H       1  <0>         0.1437
     56 H18        77.5163   22.5393   28.9747 H       1  <0>         0.1437
     57 H19        80.3921   26.6123   28.1163 H       1  <0>         0.1449
     58 H20        79.8401   27.6037   26.9420 H       1  <0>         0.1449
     59 H21        77.2946   27.7044   26.7555 H       1  <0>         0.1578
     60 H22        74.9069   21.1148   35.1495 H       1  <0>         0.1496
     61 H23        69.3957   22.5127   29.9907 H       1  <0>         0.2130
     62 H24        70.5329   21.4344   27.4409 H       1  <0>         0.2130
@<TRIPOS>BOND
     1     1     3   ar
     2     1    10   ar
     3     2     4   ar
     4     2    10   ar
     5     3    11   ar
     6     4    11   ar
     7     5     6    1
     8     5     7    1
     9     6    12    1
    10     7    16    1
    11     8     9    1
    12     8    17    1
    13     9    18    1
    14    10    16    1
    15    11    19    1
    16    12    13    2
    17    12    14    1
    18    13    23    1
    19    13    26    1
    20    14    25   am
    21    14    32    2
    22    15    24    1
    23    15    25    1
    24    15    26    2
    25    16    21    1
    26    17    20    1
    27    17    27    1
    28    18    30    1
    29    18    33    2
    30    19    27   am
    31    19    34    2
    32    20    31    1
    33    20    35    2
    34    21    22    1
    35    21    28    1
    36    21    29    1
    37    22    36    1
    38    22    37    1
    39    22    38    1
    40     1    39    1
    41     2    40    1
    42     3    41    1
    43     4    42    1
    44     5    43    1
    45     5    44    1
    46     6    45    1
    47     6    46    1
    48     7    47    1
    49     7    48    1
    50     8    49    1
    51     8    50    1
    52     9    51    1
    53     9    52    1
    54    16    53    1
    55    17    54    1
    56    23    55    1
    57    23    56    1
    58    24    57    1
    59    24    58    1
    60    25    59    1
    61    27    60    1
    62    28    61    1
    63    29    62    1
@<TRIPOS>SUBSTRUCTURE
     1 <0>         1 TEMP              0 ****  ****    0 ROOT

