
##########                                Name:        KEU_510_1NJS
##########                    Molecular_Weight:             543.456
##########                DOCK_Rotatable_Bonds:                  18
##########                       Formal_Charge:             -2.0001
##########                     HBond_Acceptors:                  16
##########                        HBond_Donors:                   8
##########                         Heavy_Atoms:                  38
##########                            HA_RMSDs:              11.116
##########                            HA_RMSDh:              11.003
##########                            HA_RMSDm:               9.244
##########                          Grid_Score:           12.887377
##########                     Grid_vdw_energy:          -19.908720
##########                      Grid_es_energy:           32.796097
##########           Internal_energy_repulsive:           17.249500

@<TRIPOS>MOLECULE
KEU_510_1NJS
 62 63 1 0 0
SMALL
USER_CHARGES


@<TRIPOS>ATOM
      1 C1         72.4739   28.6593   37.3478 C.ar    1  <0>        -0.0574
      2 C2         71.0396   27.8278   39.3751 C.ar    1  <0>        -0.0574
      3 C3         72.9933   29.7063   38.1894 C.ar    1  <0>        -0.0494
      4 C4         71.5652   28.8523   40.1991 C.ar    1  <0>        -0.0494
      5 C5         72.0839   24.2365   37.2286 C.3     1  <0>        -0.0481
      6 C6         72.5773   22.9005   37.8971 C.3     1  <0>        -0.0195
      7 C7         70.9347   25.1397   38.0998 C.3     1  <0>        -0.0407
      8 C8         72.3095   32.6791   43.2519 C.3     1  <0>        -0.0241
      9 C9         71.5642   33.5940   42.2827 C.3     1  <0>        -0.0112
     10 C10        71.4631   27.6774   37.9724 C.ar    1  <0>        -0.0388
     11 C11        72.5578   29.8000   39.6165 C.ar    1  <0>         0.0367
     12 C12        74.0377   23.0119   37.5865 C.2     1  <0>         0.0541
     13 C13        75.2777   23.5997   38.1212 C.2     1  <0>         0.1277
     14 C14        74.2667   22.3397   36.4483 C.2     1  <0>         0.2495
     15 C15        76.7394   22.7891   36.3304 C.2     1  <0>         0.1858
     16 C16        70.8249   26.3907   37.2103 C.3     1  <0>         0.0469
     17 C17        73.4689   31.9766   42.6345 C.3     1  <0>         0.0632
     18 C18        70.5682   34.4613   42.9402 C.2     1  <0>         0.0418
     19 C19        73.1832   30.8387   40.3961 C.2     1  <0>         0.2446
     20 C20        74.4869   31.2691   43.6349 C.2     1  <0>         0.0620
     21 C21        69.3852   26.3946   36.5684 C.3     1  <0>         0.2699
     22 C22        68.2350   27.0585   37.3591 C.3     1  <0>         0.4445
     23 N1         75.2725   24.3227   39.2922 N.pl3   1  <0>        -0.3427
     24 N2         77.9746   22.7281   35.8129 N.pl3   1  <0>        -0.3307
     25 N3         75.6955   22.1820   35.7181 N.am    1  <0>        -0.2544
     26 N4         76.5602   23.4005   37.4179 N.2     1  <0>        -0.2032
     27 N5         72.8136   30.9638   41.7256 N.am    1  <0>        -0.3034
     28 O1         69.6092   27.6103   35.5553 O.3     1  <0>        -0.3577
     29 O2         69.1283   25.5443   35.8153 O.3     1  <0>        -0.3577
     30 O3         69.9508   35.2040   42.0426 O.co2   1  <0>        -0.5498
     31 O4         74.2282   30.0142   44.1450 O.co2   1  <0>        -0.5479
     32 O5         73.4473   21.6133   35.5725 O.2     1  <0>        -0.2700
     33 O6         70.3734   34.4695   44.1583 O.co2   1  <0>        -0.5498
     34 O7         74.0285   31.5489   39.8993 O.2     1  <0>        -0.2702
     35 O8         75.5062   31.8651   43.9442 O.co2   1  <0>        -0.5479
     36 F1         67.1024   26.9947   36.6390 F       1  <0>        -0.1654
     37 F2         68.2098   26.2740   38.4308 F       1  <0>        -0.1654
     38 F3         68.3907   28.3373   37.8735 F       1  <0>        -0.1654
     39 H1         72.7815   28.5656   36.3167 H       1  <0>         0.0621
     40 H2         70.3124   27.1418   39.7839 H       1  <0>         0.0621
     41 H3         73.6962   30.4225   37.7902 H       1  <0>         0.0625
     42 H4         71.2534   28.9454   41.2289 H       1  <0>         0.0625
     43 H5         72.9671   24.8781   37.0925 H       1  <0>         0.0269
     44 H6         71.6252   23.9685   36.2655 H       1  <0>         0.0269
     45 H7         72.3668   22.8530   38.9758 H       1  <0>         0.0316
     46 H8         72.1105   22.0027   37.4659 H       1  <0>         0.0316
     47 H9         69.9755   24.6118   38.2056 H       1  <0>         0.0273
     48 H10        71.2697   25.3761   39.1205 H       1  <0>         0.0273
     49 H11        72.6847   33.2939   44.0832 H       1  <0>         0.0290
     50 H12        71.6032   31.9188   43.6168 H       1  <0>         0.0290
     51 H13        72.3027   34.2382   41.7831 H       1  <0>         0.0325
     52 H14        71.0389   32.9627   41.5509 H       1  <0>         0.0325
     53 H15        71.4571   26.4176   36.3105 H       1  <0>         0.0404
     54 H16        74.1205   32.7077   42.1335 H       1  <0>         0.0560
     55 H17        75.8313   23.8541   39.9763 H       1  <0>         0.1437
     56 H18        75.6480   25.2339   39.1228 H       1  <0>         0.1437
     57 H19        78.4915   23.5393   36.0863 H       1  <0>         0.1449
     58 H20        78.4372   21.9085   36.1510 H       1  <0>         0.1449
     59 H21        75.8038   21.6684   34.8670 H       1  <0>         0.1578
     60 H22        72.0969   30.3701   42.0916 H       1  <0>         0.1496
     61 H23        69.0534   27.4948   34.7936 H       1  <0>         0.2130
     62 H24        68.3966   25.8125   35.2718 H       1  <0>         0.2130
@<TRIPOS>BOND
     1     1     3   ar
     2     1    10   ar
     3     2     4   ar
     4     2    10   ar
     5     3    11   ar
     6     4    11   ar
     7     5     6    1
     8     5     7    1
     9     6    12    1
    10     7    16    1
    11     8     9    1
    12     8    17    1
    13     9    18    1
    14    10    16    1
    15    11    19    1
    16    12    13    2
    17    12    14    1
    18    13    23    1
    19    13    26    1
    20    14    25   am
    21    14    32    2
    22    15    24    1
    23    15    25    1
    24    15    26    2
    25    16    21    1
    26    17    20    1
    27    17    27    1
    28    18    30    1
    29    18    33    2
    30    19    27   am
    31    19    34    2
    32    20    31    1
    33    20    35    2
    34    21    22    1
    35    21    28    1
    36    21    29    1
    37    22    36    1
    38    22    37    1
    39    22    38    1
    40     1    39    1
    41     2    40    1
    42     3    41    1
    43     4    42    1
    44     5    43    1
    45     5    44    1
    46     6    45    1
    47     6    46    1
    48     7    47    1
    49     7    48    1
    50     8    49    1
    51     8    50    1
    52     9    51    1
    53     9    52    1
    54    16    53    1
    55    17    54    1
    56    23    55    1
    57    23    56    1
    58    24    57    1
    59    24    58    1
    60    25    59    1
    61    27    60    1
    62    28    61    1
    63    29    62    1
@<TRIPOS>SUBSTRUCTURE
     1 <0>         1 TEMP              0 ****  ****    0 ROOT

