
##########                                Name:        KEU_510_1NJS
##########                    Molecular_Weight:             543.456
##########                DOCK_Rotatable_Bonds:                  18
##########                       Formal_Charge:             -2.0001
##########                     HBond_Acceptors:                  16
##########                        HBond_Donors:                   8
##########                         Heavy_Atoms:                  38
##########                            HA_RMSDs:              15.049
##########                            HA_RMSDh:              15.043
##########                            HA_RMSDm:              13.435
##########                          Grid_Score:           10.580761
##########                     Grid_vdw_energy:          -27.919079
##########                      Grid_es_energy:           38.499840
##########           Internal_energy_repulsive:           19.014370

@<TRIPOS>MOLECULE
KEU_510_1NJS
 62 63 1 0 0
SMALL
USER_CHARGES


@<TRIPOS>ATOM
      1 C1         63.1333   14.0521   35.6673 C.ar    1  <0>        -0.0574
      2 C2         63.9705   11.5997   36.0462 C.ar    1  <0>        -0.0574
      3 C3         63.1209   14.2318   37.0961 C.ar    1  <0>        -0.0494
      4 C4         63.9678   11.7893   37.4494 C.ar    1  <0>        -0.0494
      5 C5         65.6459   13.0397   32.1144 C.3     1  <0>        -0.0481
      6 C6         67.1735   13.0855   31.7408 C.3     1  <0>        -0.0195
      7 C7         65.1787   11.8600   33.2481 C.3     1  <0>        -0.0407
      8 C8         63.8366   11.5557   42.3425 C.3     1  <0>        -0.0241
      9 C9         62.3573   11.6364   42.7125 C.3     1  <0>        -0.0112
     10 C10        63.5852   12.6820   35.1244 C.ar    1  <0>        -0.0388
     11 C11        63.5508   13.1142   37.9912 C.ar    1  <0>         0.0367
     12 C12        67.1399   14.2235   30.7685 C.2     1  <0>         0.0541
     13 C13        66.8312   15.6621   30.7041 C.2     1  <0>         0.1277
     14 C14        67.5332   13.7542   29.5748 C.2     1  <0>         0.2495
     15 C15        67.3246   15.9243   28.3191 C.2     1  <0>         0.1858
     16 C16        63.7385   12.3113   33.5487 C.3     1  <0>         0.0469
     17 C17        64.3637   12.8032   41.7221 C.3     1  <0>         0.0632
     18 C18        61.9413   10.6218   43.6993 C.2     1  <0>         0.0418
     19 C19        63.5686   13.4117   39.4016 C.2     1  <0>         0.2446
     20 C20        65.8579   13.2081   42.0976 C.2     1  <0>         0.0620
     21 C21        62.7635   11.3287   32.7947 C.3     1  <0>         0.2699
     22 C22        62.1789   10.1337   33.5815 C.3     1  <0>         0.4445
     23 N1         66.4200   16.3502   31.8228 N.pl3   1  <0>        -0.3427
     24 N2         67.3837   16.7367   27.2543 N.pl3   1  <0>        -0.3307
     25 N3         67.6532   14.6148   28.2168 N.am    1  <0>        -0.2544
     26 N4         66.9828   16.4005   29.4349 N.2     1  <0>        -0.2032
     27 N5         64.2335   12.5331   40.2417 N.am    1  <0>        -0.3034
     28 O1         61.4489   12.2342   32.8735 O.3     1  <0>        -0.3577
     29 O2         62.8794   11.2349   31.6397 O.3     1  <0>        -0.3577
     30 O3         60.6964   10.8389   44.0756 O.co2   1  <0>        -0.5498
     31 O4         66.8199   13.3653   41.1220 O.co2   1  <0>        -0.5479
     32 O5         67.9353   12.4913   29.1169 O.2     1  <0>        -0.2700
     33 O6         62.6811    9.7188   44.0981 O.co2   1  <0>        -0.5498
     34 O7         63.0442   14.4200   39.8187 O.2     1  <0>        -0.2702
     35 O8         66.1361   13.3756   43.2742 O.co2   1  <0>        -0.5479
     36 F1         61.2049    9.5559   32.8584 F       1  <0>        -0.1654
     37 F2         63.2638    9.3741   33.6858 F       1  <0>        -0.1654
     38 F3         61.7519   10.3033   34.8903 F       1  <0>        -0.1654
     39 H1         62.8367   14.8483   35.0004 H       1  <0>         0.0621
     40 H2         64.2612   10.6409   35.6431 H       1  <0>         0.0621
     41 H3         62.8017   15.1723   37.5203 H       1  <0>         0.0625
     42 H4         64.2620   10.9903   38.1138 H       1  <0>         0.0625
     43 H5         65.3849   14.0205   32.5386 H       1  <0>         0.0269
     44 H6         65.0898   12.8382   31.1869 H       1  <0>         0.0269
     45 H7         67.8251   13.2751   32.6064 H       1  <0>         0.0316
     46 H8         67.5387   12.1477   31.2967 H       1  <0>         0.0316
     47 H9         65.2243   10.8401   32.8387 H       1  <0>         0.0273
     48 H10        65.8165   11.8603   34.1443 H       1  <0>         0.0273
     49 H11        64.4093   11.3619   43.2614 H       1  <0>         0.0290
     50 H12        63.9650   10.7343   41.6222 H       1  <0>         0.0290
     51 H13        62.1653   12.6309   43.1419 H       1  <0>         0.0325
     52 H14        61.7665   11.4864   41.7969 H       1  <0>         0.0325
     53 H15        63.4245   13.2802   33.1331 H       1  <0>         0.0404
     54 H16        63.7976   13.6696   42.0948 H       1  <0>         0.0560
     55 H17        66.1172   17.2659   31.5590 H       1  <0>         0.1437
     56 H18        65.6628   15.8608   32.2554 H       1  <0>         0.1437
     57 H19        67.6334   17.6584   27.5511 H       1  <0>         0.1449
     58 H20        68.0707   16.3956   26.6127 H       1  <0>         0.1449
     59 H21        67.9513   14.2073   27.3537 H       1  <0>         0.1578
     60 H22        64.6361   11.7014   39.8593 H       1  <0>         0.1496
     61 H23        60.6943   11.6833   33.0456 H       1  <0>         0.2130
     62 H24        62.4849   10.4220   31.3464 H       1  <0>         0.2130
@<TRIPOS>BOND
     1     1     3   ar
     2     1    10   ar
     3     2     4   ar
     4     2    10   ar
     5     3    11   ar
     6     4    11   ar
     7     5     6    1
     8     5     7    1
     9     6    12    1
    10     7    16    1
    11     8     9    1
    12     8    17    1
    13     9    18    1
    14    10    16    1
    15    11    19    1
    16    12    13    2
    17    12    14    1
    18    13    23    1
    19    13    26    1
    20    14    25   am
    21    14    32    2
    22    15    24    1
    23    15    25    1
    24    15    26    2
    25    16    21    1
    26    17    20    1
    27    17    27    1
    28    18    30    1
    29    18    33    2
    30    19    27   am
    31    19    34    2
    32    20    31    1
    33    20    35    2
    34    21    22    1
    35    21    28    1
    36    21    29    1
    37    22    36    1
    38    22    37    1
    39    22    38    1
    40     1    39    1
    41     2    40    1
    42     3    41    1
    43     4    42    1
    44     5    43    1
    45     5    44    1
    46     6    45    1
    47     6    46    1
    48     7    47    1
    49     7    48    1
    50     8    49    1
    51     8    50    1
    52     9    51    1
    53     9    52    1
    54    16    53    1
    55    17    54    1
    56    23    55    1
    57    23    56    1
    58    24    57    1
    59    24    58    1
    60    25    59    1
    61    27    60    1
    62    28    61    1
    63    29    62    1
@<TRIPOS>SUBSTRUCTURE
     1 <0>         1 TEMP              0 ****  ****    0 ROOT

