
##########                                Name:        KEU_510_1NJS
##########                    Molecular_Weight:             543.456
##########                DOCK_Rotatable_Bonds:                  18
##########                       Formal_Charge:             -2.0001
##########                     HBond_Acceptors:                  16
##########                        HBond_Donors:                   8
##########                         Heavy_Atoms:                  38
##########                            HA_RMSDs:               7.639
##########                            HA_RMSDh:               7.306
##########                            HA_RMSDm:               6.257
##########                          Grid_Score:           15.281517
##########                     Grid_vdw_energy:          -36.797569
##########                      Grid_es_energy:           52.079086
##########           Internal_energy_repulsive:           25.175148

@<TRIPOS>MOLECULE
KEU_510_1NJS
 62 63 1 0 0
SMALL
USER_CHARGES


@<TRIPOS>ATOM
      1 C1         72.1224   25.5049   35.1054 C.ar    1  <0>        -0.0574
      2 C2         74.6788   25.0598   35.4597 C.ar    1  <0>        -0.0574
      3 C3         72.4027   26.9175   35.1135 C.ar    1  <0>        -0.0494
      4 C4         74.9470   26.4501   35.4533 C.ar    1  <0>        -0.0494
      5 C5         73.4976   22.6593   32.7543 C.3     1  <0>        -0.0481
      6 C6         73.1216   21.3990   31.8910 C.3     1  <0>        -0.0195
      7 C7         74.2603   22.3560   34.2448 C.3     1  <0>        -0.0407
      8 C8         75.9898   31.1804   36.6159 C.3     1  <0>        -0.0241
      9 C9         75.0657   30.6333   37.7016 C.3     1  <0>        -0.0112
     10 C10        73.3126   24.5405   35.2770 C.ar    1  <0>        -0.0388
     11 C11        73.8100   27.3969   35.2703 C.ar    1  <0>         0.0367
     12 C12        73.7162   21.8270   30.5853 C.2     1  <0>         0.0541
     13 C13        74.9385   21.6667   29.7796 C.2     1  <0>         0.1277
     14 C14        72.8170   22.6020   29.9602 C.2     1  <0>         0.2495
     15 C15        74.1976   23.0626   27.9080 C.2     1  <0>         0.1858
     16 C16        73.2105   22.9187   35.2193 C.3     1  <0>         0.0469
     17 C17        75.5814   30.7936   35.2366 C.3     1  <0>         0.0632
     18 C18        75.4033   31.1093   39.0565 C.2     1  <0>         0.0418
     19 C19        73.9980   28.8243   35.1984 C.2     1  <0>         0.2446
     20 C20        76.6441   31.0578   34.0796 C.2     1  <0>         0.0620
     21 C21        73.2168   22.0075   36.5055 C.3     1  <0>         0.2699
     22 C22        74.3406   22.2196   37.5452 C.3     1  <0>         0.4445
     23 N1         75.9882   20.8980   30.2284 N.pl3   1  <0>        -0.3427
     24 N2         74.4733   23.5926   26.7079 N.pl3   1  <0>        -0.3307
     25 N3         73.0130   23.2989   28.5197 N.am    1  <0>        -0.2544
     26 N4         75.0487   22.3122   28.4567 N.2     1  <0>        -0.2032
     27 N5         75.2811   29.3191   35.3672 N.am    1  <0>        -0.3034
     28 O1         72.0884   22.7895   37.3237 O.3     1  <0>        -0.3577
     29 O2         72.7209   20.9569   36.4245 O.3     1  <0>        -0.3577
     30 O3         74.6713   30.4791   39.9540 O.co2   1  <0>        -0.5498
     31 O4         77.2517   30.0115   33.4180 O.co2   1  <0>        -0.5479
     32 O5         71.5274   23.0443   30.2881 O.2     1  <0>        -0.2700
     33 O6         76.2490   31.9792   39.2797 O.co2   1  <0>        -0.5498
     34 O7         73.0594   29.5518   34.9624 O.2     1  <0>        -0.2702
     35 O8         76.9127   32.2128   33.7902 O.co2   1  <0>        -0.5479
     36 F1         74.3861   21.1645   38.3759 F       1  <0>        -0.1654
     37 F2         75.3926   22.2854   36.7367 F       1  <0>        -0.1654
     38 F3         74.3978   23.3954   38.2790 F       1  <0>        -0.1654
     39 H1         71.1152   25.1347   34.9835 H       1  <0>         0.0621
     40 H2         75.4935   24.3651   35.6015 H       1  <0>         0.0621
     41 H3         71.5975   27.6293   35.0064 H       1  <0>         0.0625
     42 H4         75.9549   26.8174   35.5786 H       1  <0>         0.0625
     43 H5         74.1874   23.2711   32.1542 H       1  <0>         0.0269
     44 H6         72.5625   23.1967   32.9705 H       1  <0>         0.0269
     45 H7         73.5544   20.4647   32.2779 H       1  <0>         0.0316
     46 H8         72.0376   21.2206   31.8350 H       1  <0>         0.0316
     47 H9         74.4567   21.2861   34.4081 H       1  <0>         0.0273
     48 H10        75.2321   22.8638   34.3325 H       1  <0>         0.0273
     49 H11        75.9812   32.2784   36.6804 H       1  <0>         0.0290
     50 H12        77.0009   30.7869   36.7967 H       1  <0>         0.0290
     51 H13        74.0391   30.9545   37.4715 H       1  <0>         0.0325
     52 H14        75.1417   29.5359   37.6951 H       1  <0>         0.0325
     53 H15        72.1569   22.8433   34.9124 H       1  <0>         0.0404
     54 H16        74.7374   31.4196   34.9113 H       1  <0>         0.0560
     55 H17        76.7414   20.9459   29.5724 H       1  <0>         0.1437
     56 H18        76.2968   21.2410   31.1156 H       1  <0>         0.1437
     57 H19        75.2365   23.0980   26.2920 H       1  <0>         0.1449
     58 H20        73.6685   23.5199   26.1187 H       1  <0>         0.1449
     59 H21        72.3046   23.8696   28.1044 H       1  <0>         0.1578
     60 H22        76.0251   28.6857   35.5803 H       1  <0>         0.1496
     61 H23        71.9043   22.3260   38.1322 H       1  <0>         0.2130
     62 H24        72.9553   20.4362   37.1837 H       1  <0>         0.2130
@<TRIPOS>BOND
     1     1     3   ar
     2     1    10   ar
     3     2     4   ar
     4     2    10   ar
     5     3    11   ar
     6     4    11   ar
     7     5     6    1
     8     5     7    1
     9     6    12    1
    10     7    16    1
    11     8     9    1
    12     8    17    1
    13     9    18    1
    14    10    16    1
    15    11    19    1
    16    12    13    2
    17    12    14    1
    18    13    23    1
    19    13    26    1
    20    14    25   am
    21    14    32    2
    22    15    24    1
    23    15    25    1
    24    15    26    2
    25    16    21    1
    26    17    20    1
    27    17    27    1
    28    18    30    1
    29    18    33    2
    30    19    27   am
    31    19    34    2
    32    20    31    1
    33    20    35    2
    34    21    22    1
    35    21    28    1
    36    21    29    1
    37    22    36    1
    38    22    37    1
    39    22    38    1
    40     1    39    1
    41     2    40    1
    42     3    41    1
    43     4    42    1
    44     5    43    1
    45     5    44    1
    46     6    45    1
    47     6    46    1
    48     7    47    1
    49     7    48    1
    50     8    49    1
    51     8    50    1
    52     9    51    1
    53     9    52    1
    54    16    53    1
    55    17    54    1
    56    23    55    1
    57    23    56    1
    58    24    57    1
    59    24    58    1
    60    25    59    1
    61    27    60    1
    62    28    61    1
    63    29    62    1
@<TRIPOS>SUBSTRUCTURE
     1 <0>         1 TEMP              0 ****  ****    0 ROOT

