
##########                                Name:        KEU_510_1NJS
##########                    Molecular_Weight:             543.456
##########                DOCK_Rotatable_Bonds:                  18
##########                       Formal_Charge:             -2.0001
##########                     HBond_Acceptors:                  16
##########                        HBond_Donors:                   8
##########                         Heavy_Atoms:                  38
##########                            HA_RMSDs:              10.638
##########                            HA_RMSDh:              10.563
##########                            HA_RMSDm:               8.974
##########                          Grid_Score:           13.166464
##########                     Grid_vdw_energy:          -21.958902
##########                      Grid_es_energy:           35.125366
##########           Internal_energy_repulsive:           22.180387

@<TRIPOS>MOLECULE
KEU_510_1NJS
 62 63 1 0 0
SMALL
USER_CHARGES


@<TRIPOS>ATOM
      1 C1         70.2715   27.3985   38.6936 C.ar    1  <0>        -0.0574
      2 C2         72.0754   26.2861   40.2322 C.ar    1  <0>        -0.0574
      3 C3         70.5650   28.6611   39.3212 C.ar    1  <0>        -0.0494
      4 C4         72.3667   27.5339   40.8347 C.ar    1  <0>        -0.0494
      5 C5         72.3433   24.1255   36.5443 C.3     1  <0>        -0.0481
      6 C6         73.7386   23.9096   35.8501 C.3     1  <0>        -0.0195
      7 C7         72.3310   24.0936   38.2455 C.3     1  <0>        -0.0407
      8 C8         72.2878   31.5352   43.9353 C.3     1  <0>        -0.0241
      9 C9         70.7730   31.4161   43.7823 C.3     1  <0>        -0.0112
     10 C10        71.0672   26.1654   39.1651 C.ar    1  <0>        -0.0388
     11 C11        71.6193   28.7404   40.3781 C.ar    1  <0>         0.0367
     12 C12        73.2865   23.8900   34.4230 C.2     1  <0>         0.0541
     13 C13        72.7468   24.7827   33.3834 C.2     1  <0>         0.1277
     14 C14        73.4435   22.6404   33.9607 C.2     1  <0>         0.2495
     15 C15        72.5903   23.0751   31.6341 C.2     1  <0>         0.1858
     16 C16        70.9346   24.6749   38.5292 C.3     1  <0>         0.0469
     17 C17        73.0214   31.4966   42.6394 C.3     1  <0>         0.0632
     18 C18        70.0235   31.8900   44.9612 C.2     1  <0>         0.0418
     19 C19        71.8880   30.0576   40.8983 C.2     1  <0>         0.2446
     20 C20        74.6057   31.6456   42.7143 C.2     1  <0>         0.0620
     21 C21        70.0659   23.5326   39.1814 C.3     1  <0>         0.2699
     22 C22        70.3597   23.1383   40.6466 C.3     1  <0>         0.4445
     23 N1         72.5194   26.1154   33.6409 N.pl3   1  <0>        -0.3427
     24 N2         72.2558   22.7691   30.3725 N.pl3   1  <0>        -0.3307
     25 N3         73.0875   22.1347   32.4718 N.am    1  <0>        -0.2544
     26 N4         72.4622   24.2645   32.0308 N.2     1  <0>        -0.2032
     27 N5         72.6320   30.1559   42.0630 N.am    1  <0>        -0.3034
     28 O1         68.7710   24.4115   39.5058 O.3     1  <0>        -0.3577
     29 O2         69.6007   22.7362   38.4703 O.3     1  <0>        -0.3577
     30 O3         68.7592   32.0895   44.6446 O.co2   1  <0>        -0.5498
     31 O4         75.4256   30.9939   41.8171 O.co2   1  <0>        -0.5479
     32 O5         73.9162   21.4502   34.5319 O.2     1  <0>        -0.2700
     33 O6         70.5397   32.0701   46.0670 O.co2   1  <0>        -0.5498
     34 O7         71.4985   31.0386   40.3053 O.2     1  <0>        -0.2702
     35 O8         75.0821   32.3514   43.5887 O.co2   1  <0>        -0.5479
     36 F1         69.2588   22.5947   41.1926 F       1  <0>        -0.1654
     37 F2         71.3319   22.2532   40.4562 F       1  <0>        -0.1654
     38 F3         70.9065   24.0656   41.5214 F       1  <0>        -0.1654
     39 H1         69.5212   27.3185   37.9208 H       1  <0>         0.0621
     40 H2         72.6037   25.4038   40.5621 H       1  <0>         0.0621
     41 H3         70.0243   29.5491   39.0288 H       1  <0>         0.0625
     42 H4         73.1154   27.6102   41.6094 H       1  <0>         0.0625
     43 H5         71.9751   25.1147   36.2345 H       1  <0>         0.0269
     44 H6         71.6796   23.3193   36.1987 H       1  <0>         0.0269
     45 H7         74.4579   24.7136   36.0651 H       1  <0>         0.0316
     46 H8         74.2362   22.9785   36.1592 H       1  <0>         0.0316
     47 H9         72.4550   23.0779   38.6492 H       1  <0>         0.0273
     48 H10        73.1372   24.6994   38.6846 H       1  <0>         0.0273
     49 H11        72.5080   32.4951   44.4251 H       1  <0>         0.0290
     50 H12        72.6368   30.6936   44.5516 H       1  <0>         0.0290
     51 H13        70.4676   32.0213   42.9160 H       1  <0>         0.0325
     52 H14        70.5271   30.3558   43.6235 H       1  <0>         0.0325
     53 H15        70.3185   24.9361   37.6561 H       1  <0>         0.0404
     54 H16        72.7439   32.3700   42.0309 H       1  <0>         0.0560
     55 H17        72.4008   26.6066   32.7781 H       1  <0>         0.1437
     56 H18        71.6926   26.2113   34.1951 H       1  <0>         0.1437
     57 H19        71.7548   23.5330   29.9654 H       1  <0>         0.1449
     58 H20        73.0846   22.5933   29.8413 H       1  <0>         0.1449
     59 H21        73.2251   21.1866   32.1852 H       1  <0>         0.1578
     60 H22        72.9175   29.3204   42.5326 H       1  <0>         0.1496
     61 H23        68.3294   24.0560   40.2681 H       1  <0>         0.2130
     62 H24        69.1217   22.0953   38.9823 H       1  <0>         0.2130
@<TRIPOS>BOND
     1     1     3   ar
     2     1    10   ar
     3     2     4   ar
     4     2    10   ar
     5     3    11   ar
     6     4    11   ar
     7     5     6    1
     8     5     7    1
     9     6    12    1
    10     7    16    1
    11     8     9    1
    12     8    17    1
    13     9    18    1
    14    10    16    1
    15    11    19    1
    16    12    13    2
    17    12    14    1
    18    13    23    1
    19    13    26    1
    20    14    25   am
    21    14    32    2
    22    15    24    1
    23    15    25    1
    24    15    26    2
    25    16    21    1
    26    17    20    1
    27    17    27    1
    28    18    30    1
    29    18    33    2
    30    19    27   am
    31    19    34    2
    32    20    31    1
    33    20    35    2
    34    21    22    1
    35    21    28    1
    36    21    29    1
    37    22    36    1
    38    22    37    1
    39    22    38    1
    40     1    39    1
    41     2    40    1
    42     3    41    1
    43     4    42    1
    44     5    43    1
    45     5    44    1
    46     6    45    1
    47     6    46    1
    48     7    47    1
    49     7    48    1
    50     8    49    1
    51     8    50    1
    52     9    51    1
    53     9    52    1
    54    16    53    1
    55    17    54    1
    56    23    55    1
    57    23    56    1
    58    24    57    1
    59    24    58    1
    60    25    59    1
    61    27    60    1
    62    28    61    1
    63    29    62    1
@<TRIPOS>SUBSTRUCTURE
     1 <0>         1 TEMP              0 ****  ****    0 ROOT

