
##########                                Name:        KEU_510_1NJS
##########                    Molecular_Weight:             543.456
##########                DOCK_Rotatable_Bonds:                  18
##########                       Formal_Charge:             -2.0001
##########                     HBond_Acceptors:                  16
##########                        HBond_Donors:                   8
##########                         Heavy_Atoms:                  38
##########                            HA_RMSDs:               7.876
##########                            HA_RMSDh:               7.112
##########                            HA_RMSDm:               6.419
##########                          Grid_Score:           17.296280
##########                     Grid_vdw_energy:          -49.549606
##########                      Grid_es_energy:           66.845886
##########           Internal_energy_repulsive:           21.930187

@<TRIPOS>MOLECULE
KEU_510_1NJS
 62 63 1 0 0
SMALL
USER_CHARGES


@<TRIPOS>ATOM
      1 C1         73.8366   21.6235   32.1444 C.ar    1  <0>        -0.0574
      2 C2         72.8397   23.8088   31.1008 C.ar    1  <0>        -0.0574
      3 C3         73.6415   22.1994   33.4499 C.ar    1  <0>        -0.0494
      4 C4         72.6394   24.3621   32.3888 C.ar    1  <0>        -0.0494
      5 C5         71.2457   20.9217   28.9683 C.3     1  <0>        -0.0481
      6 C6         70.1052   20.5867   27.9376 C.3     1  <0>        -0.0195
      7 C7         72.1720   22.3124   28.6471 C.3     1  <0>        -0.0407
      8 C8         72.5033   27.2207   36.4317 C.3     1  <0>        -0.0241
      9 C9         74.0127   27.3011   36.6489 C.3     1  <0>        -0.0112
     10 C10        73.4090   22.4620   30.9237 C.ar    1  <0>        -0.0388
     11 C11        73.0306   23.5575   33.5814 C.ar    1  <0>         0.0367
     12 C12        69.1773   19.8479   28.8513 C.2     1  <0>         0.0541
     13 C13        68.1393   20.0928   29.8669 C.2     1  <0>         0.1277
     14 C14        69.3673   18.5346   28.6535 C.2     1  <0>         0.2495
     15 C15        67.6713   17.7334   30.3303 C.2     1  <0>         0.1858
     16 C16        73.4782   21.9576   29.3795 C.3     1  <0>         0.0469
     17 C17        71.9689   25.8310   36.4763 C.3     1  <0>         0.0632
     18 C18        74.5203   28.6827   36.7470 C.2     1  <0>         0.0418
     19 C19        72.8140   24.0200   34.9294 C.2     1  <0>         0.2446
     20 C20        70.4158   25.6759   36.7950 C.2     1  <0>         0.0620
     21 C21        74.6752   22.3000   28.4128 C.3     1  <0>         0.2699
     22 C22        75.1629   23.7651   28.3450 C.3     1  <0>         0.4445
     23 N1         67.7762   21.3737   30.2156 N.pl3   1  <0>        -0.3427
     24 N2         66.9670   16.8312   31.0282 N.pl3   1  <0>        -0.3307
     25 N3         68.5918   17.3448   29.4165 N.am    1  <0>        -0.2544
     26 N4         67.4484   18.9602   30.5141 N.2     1  <0>        -0.2032
     27 N5         72.2945   25.2927   35.1032 N.am    1  <0>        -0.3034
     28 O1         75.8595   21.7775   29.3502 O.3     1  <0>        -0.3577
     29 O2         74.8311   21.6151   27.4839 O.3     1  <0>        -0.3577
     30 O3         75.8165   28.7077   36.5064 O.co2   1  <0>        -0.5498
     31 O4         69.4909   25.5385   35.7814 O.co2   1  <0>        -0.5479
     32 O5         70.2116   17.7954   27.8127 O.2     1  <0>        -0.2700
     33 O6         73.8072   29.6503   37.0242 O.co2   1  <0>        -0.5498
     34 O7         73.0511   23.2938   35.8687 O.2     1  <0>        -0.2702
     35 O8         70.0587   25.6833   37.9622 O.co2   1  <0>        -0.5479
     36 F1         76.4738   23.7867   28.0507 F       1  <0>        -0.1654
     37 F2         74.4037   24.2146   27.3519 F       1  <0>        -0.1654
     38 F3         74.9049   24.6345   29.3946 F       1  <0>        -0.1654
     39 H1         74.2667   20.6400   32.0250 H       1  <0>         0.0621
     40 H2         72.5692   24.3869   30.2296 H       1  <0>         0.0621
     41 H3         73.9362   21.6511   34.3326 H       1  <0>         0.0625
     42 H4         72.2119   25.3471   32.5049 H       1  <0>         0.0625
     43 H5         70.7667   21.0686   29.9477 H       1  <0>         0.0269
     44 H6         71.9365   20.0658   28.9792 H       1  <0>         0.0269
     45 H7         69.6497   21.4823   27.4901 H       1  <0>         0.0316
     46 H8         70.4532   19.9781   27.0899 H       1  <0>         0.0316
     47 H9         72.3239   22.4786   27.5704 H       1  <0>         0.0273
     48 H10        71.7056   23.2292   29.0368 H       1  <0>         0.0273
     49 H11        72.0117   27.8023   37.2255 H       1  <0>         0.0290
     50 H12        72.2769   27.6430   35.4416 H       1  <0>         0.0290
     51 H13        74.2518   26.7806   37.5880 H       1  <0>         0.0325
     52 H14        74.5079   26.8138   35.7960 H       1  <0>         0.0325
     53 H15        73.6638   20.8913   29.5757 H       1  <0>         0.0404
     54 H16        72.4243   25.2862   37.3165 H       1  <0>         0.0560
     55 H17        67.1373   21.3421   30.9841 H       1  <0>         0.1437
     56 H18        68.5905   21.8904   30.4803 H       1  <0>         0.1437
     57 H19        66.2442   17.2955   31.5401 H       1  <0>         0.1449
     58 H20        66.5580   16.1695   30.3999 H       1  <0>         0.1449
     59 H21        68.7788   16.3810   29.2270 H       1  <0>         0.1578
     60 H22        72.1315   25.8677   34.3014 H       1  <0>         0.1496
     61 H23        76.6910   21.8952   28.9060 H       1  <0>         0.2130
     62 H24        75.3999   22.0511   26.8603 H       1  <0>         0.2130
@<TRIPOS>BOND
     1     1     3   ar
     2     1    10   ar
     3     2     4   ar
     4     2    10   ar
     5     3    11   ar
     6     4    11   ar
     7     5     6    1
     8     5     7    1
     9     6    12    1
    10     7    16    1
    11     8     9    1
    12     8    17    1
    13     9    18    1
    14    10    16    1
    15    11    19    1
    16    12    13    2
    17    12    14    1
    18    13    23    1
    19    13    26    1
    20    14    25   am
    21    14    32    2
    22    15    24    1
    23    15    25    1
    24    15    26    2
    25    16    21    1
    26    17    20    1
    27    17    27    1
    28    18    30    1
    29    18    33    2
    30    19    27   am
    31    19    34    2
    32    20    31    1
    33    20    35    2
    34    21    22    1
    35    21    28    1
    36    21    29    1
    37    22    36    1
    38    22    37    1
    39    22    38    1
    40     1    39    1
    41     2    40    1
    42     3    41    1
    43     4    42    1
    44     5    43    1
    45     5    44    1
    46     6    45    1
    47     6    46    1
    48     7    47    1
    49     7    48    1
    50     8    49    1
    51     8    50    1
    52     9    51    1
    53     9    52    1
    54    16    53    1
    55    17    54    1
    56    23    55    1
    57    23    56    1
    58    24    57    1
    59    24    58    1
    60    25    59    1
    61    27    60    1
    62    28    61    1
    63    29    62    1
@<TRIPOS>SUBSTRUCTURE
     1 <0>         1 TEMP              0 ****  ****    0 ROOT

