
##########                                Name:        KEU_510_1NJS
##########                    Molecular_Weight:             543.456
##########                DOCK_Rotatable_Bonds:                  18
##########                       Formal_Charge:             -2.0001
##########                     HBond_Acceptors:                  16
##########                        HBond_Donors:                   8
##########                         Heavy_Atoms:                  38
##########                            HA_RMSDs:              15.713
##########                            HA_RMSDh:              15.512
##########                            HA_RMSDm:              14.359
##########                          Grid_Score:           13.909948
##########                     Grid_vdw_energy:          -23.102629
##########                      Grid_es_energy:           37.012577
##########           Internal_energy_repulsive:           18.500610

@<TRIPOS>MOLECULE
KEU_510_1NJS
 62 63 1 0 0
SMALL
USER_CHARGES


@<TRIPOS>ATOM
      1 C1         68.7028    9.7178   35.9294 C.ar    1  <0>        -0.0574
      2 C2         68.9240   12.1064   36.9802 C.ar    1  <0>        -0.0574
      3 C3         68.1180    9.2660   37.1656 C.ar    1  <0>        -0.0494
      4 C4         68.3362   11.6568   38.1875 C.ar    1  <0>        -0.0494
      5 C5         67.4173   12.4112   33.6706 C.3     1  <0>        -0.0481
      6 C6         66.8684   12.7858   32.2445 C.3     1  <0>        -0.0195
      7 C7         68.8762   13.1511   34.1387 C.3     1  <0>        -0.0407
      8 C8         68.0999    9.6692   42.9495 C.3     1  <0>        -0.0241
      9 C9         69.3134    8.8996   42.4327 C.3     1  <0>        -0.0112
     10 C10        69.1129   11.2006   35.8342 C.ar    1  <0>        -0.0388
     11 C11        67.9170   10.2298   38.2906 C.ar    1  <0>         0.0367
     12 C12        65.4121   12.5336   32.4834 C.2     1  <0>         0.0541
     13 C13        64.1880   13.2299   32.9146 C.2     1  <0>         0.1277
     14 C14        65.1662   11.2470   32.1936 C.2     1  <0>         0.2495
     15 C15        62.7070   11.2881   32.7233 C.2     1  <0>         0.1858
     16 C16        69.7162   11.9144   34.5037 C.3     1  <0>         0.0469
     17 C17        66.9780    9.7371   41.9719 C.3     1  <0>         0.0632
     18 C18        70.2576    8.5069   43.4958 C.2     1  <0>         0.0418
     19 C19        67.2635    9.7000   39.4612 C.2     1  <0>         0.2446
     20 C20        65.7696   10.7069   42.3421 C.2     1  <0>         0.0620
     21 C21        71.2350   12.3066   34.3483 C.3     1  <0>         0.2699
     22 C22        71.9508   12.9487   35.5583 C.3     1  <0>         0.4445
     23 N1         64.2115   14.5647   33.2487 N.pl3   1  <0>        -0.3427
     24 N2         61.4713   10.7851   32.8546 N.pl3   1  <0>        -0.3307
     25 N3         63.7346   10.5135   32.3024 N.am    1  <0>        -0.2544
     26 N4         62.9015   12.5083   32.9718 N.2     1  <0>        -0.2032
     27 N5         67.6573   10.1829   40.6986 N.am    1  <0>        -0.3034
     28 O1         71.8518   10.8460   34.5506 O.3     1  <0>        -0.3577
     29 O2         71.6230   12.5467   33.2768 O.3     1  <0>        -0.3577
     30 O3         71.4236    8.1853   42.9708 O.co2   1  <0>        -0.5498
     31 O4         65.5948   11.9086   41.6886 O.co2   1  <0>        -0.5479
     32 O5         65.9665   10.1867   31.7449 O.2     1  <0>        -0.2700
     33 O6         69.9621    8.4866   44.6933 O.co2   1  <0>        -0.5498
     34 O7         66.3759    8.8845   39.3474 O.2     1  <0>        -0.2702
     35 O8         64.9979   10.3632   43.2231 O.co2   1  <0>        -0.5479
     36 F1         73.2575   13.0926   35.2800 F       1  <0>        -0.1654
     37 F2         71.3054   14.1082   35.6186 F       1  <0>        -0.1654
     38 F3         71.7997   12.4057   36.8257 F       1  <0>        -0.1654
     39 H1         68.8486    9.0423   35.0994 H       1  <0>         0.0621
     40 H2         69.2406   13.1357   36.8979 H       1  <0>         0.0621
     41 H3         67.8252    8.2328   37.2797 H       1  <0>         0.0625
     42 H4         68.1945   12.3339   39.0168 H       1  <0>         0.0625
     43 H5         66.6518   12.7086   34.4025 H       1  <0>         0.0269
     44 H6         67.5860   11.3243   33.6793 H       1  <0>         0.0269
     45 H7         67.0860   13.8248   31.9562 H       1  <0>         0.0316
     46 H8         67.2893   12.1628   31.4415 H       1  <0>         0.0316
     47 H9         69.3275   13.7436   33.3291 H       1  <0>         0.0273
     48 H10        68.7471   13.8387   34.9875 H       1  <0>         0.0273
     49 H11        67.7345    9.1638   43.8556 H       1  <0>         0.0290
     50 H12        68.4181   10.6971   43.1775 H       1  <0>         0.0290
     51 H13        68.9540    7.9849   41.9385 H       1  <0>         0.0325
     52 H14        69.8490    9.5434   41.7194 H       1  <0>         0.0325
     53 H15        69.6506   11.0513   33.8248 H       1  <0>         0.0404
     54 H16        66.4728    8.7613   41.9200 H       1  <0>         0.0560
     55 H17        63.2917   14.8606   33.5065 H       1  <0>         0.1437
     56 H18        64.8343   14.7046   34.0185 H       1  <0>         0.1437
     57 H19        60.8070   11.4275   32.4721 H       1  <0>         0.1449
     58 H20        61.4123    9.9145   32.3661 H       1  <0>         0.1449
     59 H21        63.6134    9.5476   32.0736 H       1  <0>         0.1578
     60 H22        68.4081   10.8414   40.7500 H       1  <0>         0.1496
     61 H23        72.6946   10.9149   34.9835 H       1  <0>         0.2130
     62 H24        72.5103   12.8823   33.3287 H       1  <0>         0.2130
@<TRIPOS>BOND
     1     1     3   ar
     2     1    10   ar
     3     2     4   ar
     4     2    10   ar
     5     3    11   ar
     6     4    11   ar
     7     5     6    1
     8     5     7    1
     9     6    12    1
    10     7    16    1
    11     8     9    1
    12     8    17    1
    13     9    18    1
    14    10    16    1
    15    11    19    1
    16    12    13    2
    17    12    14    1
    18    13    23    1
    19    13    26    1
    20    14    25   am
    21    14    32    2
    22    15    24    1
    23    15    25    1
    24    15    26    2
    25    16    21    1
    26    17    20    1
    27    17    27    1
    28    18    30    1
    29    18    33    2
    30    19    27   am
    31    19    34    2
    32    20    31    1
    33    20    35    2
    34    21    22    1
    35    21    28    1
    36    21    29    1
    37    22    36    1
    38    22    37    1
    39    22    38    1
    40     1    39    1
    41     2    40    1
    42     3    41    1
    43     4    42    1
    44     5    43    1
    45     5    44    1
    46     6    45    1
    47     6    46    1
    48     7    47    1
    49     7    48    1
    50     8    49    1
    51     8    50    1
    52     9    51    1
    53     9    52    1
    54    16    53    1
    55    17    54    1
    56    23    55    1
    57    23    56    1
    58    24    57    1
    59    24    58    1
    60    25    59    1
    61    27    60    1
    62    28    61    1
    63    29    62    1
@<TRIPOS>SUBSTRUCTURE
     1 <0>         1 TEMP              0 ****  ****    0 ROOT

