
##########                                Name:        KEU_510_1NJS
##########                    Molecular_Weight:             543.456
##########                DOCK_Rotatable_Bonds:                  18
##########                       Formal_Charge:             -2.0001
##########                     HBond_Acceptors:                  16
##########                        HBond_Donors:                   8
##########                         Heavy_Atoms:                  38
##########                            HA_RMSDs:               7.789
##########                            HA_RMSDh:               7.070
##########                            HA_RMSDm:               6.342
##########                          Grid_Score:           17.472797
##########                     Grid_vdw_energy:          -45.241341
##########                      Grid_es_energy:           62.714138
##########           Internal_energy_repulsive:           27.098175

@<TRIPOS>MOLECULE
KEU_510_1NJS
 62 63 1 0 0
SMALL
USER_CHARGES


@<TRIPOS>ATOM
      1 C1         73.9088   21.7758   32.2981 C.ar    1  <0>        -0.0574
      2 C2         72.8231   23.9188   31.2551 C.ar    1  <0>        -0.0574
      3 C3         73.8509   22.4160   33.5869 C.ar    1  <0>        -0.0494
      4 C4         72.7581   24.5355   32.5281 C.ar    1  <0>        -0.0494
      5 C5         70.9903   21.0047   29.3157 C.3     1  <0>        -0.0481
      6 C6         69.9151   20.5735   28.2511 C.3     1  <0>        -0.0195
      7 C7         71.9279   22.3723   28.9338 C.3     1  <0>        -0.0407
      8 C8         73.6644   27.2749   36.6261 C.3     1  <0>        -0.0241
      9 C9         75.0400   26.7138   36.9793 C.3     1  <0>        -0.0112
     10 C10        73.3639   22.5590   31.0874 C.ar    1  <0>        -0.0388
     11 C11        73.2641   23.7852   33.7129 C.ar    1  <0>         0.0367
     12 C12        68.9335   19.9125   29.1683 C.2     1  <0>         0.0541
     13 C13        67.8122   20.2367   30.0664 C.2     1  <0>         0.1277
     14 C14        69.1678   18.5919   29.1360 C.2     1  <0>         0.2495
     15 C15        67.3610   17.9301   30.7569 C.2     1  <0>         0.1858
     16 C16        73.2728   21.9802   29.5707 C.3     1  <0>         0.0469
     17 C17        72.5943   26.2398   36.5770 C.3     1  <0>         0.0632
     18 C18        75.8350   27.6058   37.8444 C.2     1  <0>         0.0418
     19 C19        73.1885   24.3144   35.0516 C.2     1  <0>         0.2446
     20 C20        71.0997   26.7514   36.7826 C.2     1  <0>         0.0620
     21 C21        74.3973   22.2101   28.4904 C.3     1  <0>         0.2699
     22 C22        74.7847   23.6642   28.1379 C.3     1  <0>         0.4445
     23 N1         67.3941   21.5365   30.2385 N.pl3   1  <0>        -0.3427
     24 N2         66.6231   17.0898   31.4962 N.pl3   1  <0>        -0.3307
     25 N3         68.3602   17.4710   29.9669 N.am    1  <0>        -0.2544
     26 N4         67.0969   19.1622   30.7827 N.2     1  <0>        -0.2032
     27 N5         72.7713   25.6263   35.2081 N.am    1  <0>        -0.3034
     28 O1         75.6567   21.9303   29.4338 O.3     1  <0>        -0.3577
     29 O2         74.5528   21.3799   27.6887 O.3     1  <0>        -0.3577
     30 O3         77.0647   27.1449   37.9629 O.co2   1  <0>        -0.5498
     31 O4         70.2426   26.8957   35.7120 O.co2   1  <0>        -0.5479
     32 O5         70.0930   17.7903   28.4522 O.2     1  <0>        -0.2700
     33 O6         75.3797   28.6243   38.3709 O.co2   1  <0>        -0.5498
     34 O7         73.4511   23.6107   36.0012 O.2     1  <0>        -0.2702
     35 O8         70.7271   27.0165   37.9143 O.co2   1  <0>        -0.5479
     36 F1         76.0084   23.6789   27.5830 F       1  <0>        -0.1654
     37 F2         73.8215   23.9551   27.2705 F       1  <0>        -0.1654
     38 F3         74.6945   24.6615   29.0978 F       1  <0>        -0.1654
     39 H1         74.3190   20.7833   32.1841 H       1  <0>         0.0621
     40 H2         72.4686   24.4570   30.3885 H       1  <0>         0.0621
     41 H3         74.2307   21.9078   34.4609 H       1  <0>         0.0625
     42 H4         72.3502   25.5294   32.6385 H       1  <0>         0.0625
     43 H5         70.4529   21.2287   30.2490 H       1  <0>         0.0269
     44 H6         71.6831   20.1593   29.4396 H       1  <0>         0.0269
     45 H7         69.4873   21.4235   27.6995 H       1  <0>         0.0316
     46 H8         70.3146   19.8947   27.4832 H       1  <0>         0.0316
     47 H9         72.0076   22.5397   27.8495 H       1  <0>         0.0273
     48 H10        71.5145   23.2991   29.3582 H       1  <0>         0.0273
     49 H11        73.3898   28.0153   37.3919 H       1  <0>         0.0290
     50 H12        73.7311   27.7458   35.6343 H       1  <0>         0.0290
     51 H13        74.8954   25.7612   37.5101 H       1  <0>         0.0325
     52 H14        75.5970   26.5581   36.0436 H       1  <0>         0.0325
     53 H15        73.4198   20.9154   29.8050 H       1  <0>         0.0404
     54 H16        72.7110   25.5464   37.4230 H       1  <0>         0.0560
     55 H17        67.1115   21.6733   31.1879 H       1  <0>         0.1437
     56 H18        68.1454   22.1597   30.0215 H       1  <0>         0.1437
     57 H19        65.8896   17.5983   31.9474 H       1  <0>         0.1449
     58 H20        66.2269   16.3867   30.9057 H       1  <0>         0.1449
     59 H21        68.5831   16.4983   29.9029 H       1  <0>         0.1578
     60 H22        72.5833   26.1795   34.3965 H       1  <0>         0.1496
     61 H23        76.4348   21.8214   28.9000 H       1  <0>         0.2130
     62 H24        75.3374   21.5668   27.1867 H       1  <0>         0.2130
@<TRIPOS>BOND
     1     1     3   ar
     2     1    10   ar
     3     2     4   ar
     4     2    10   ar
     5     3    11   ar
     6     4    11   ar
     7     5     6    1
     8     5     7    1
     9     6    12    1
    10     7    16    1
    11     8     9    1
    12     8    17    1
    13     9    18    1
    14    10    16    1
    15    11    19    1
    16    12    13    2
    17    12    14    1
    18    13    23    1
    19    13    26    1
    20    14    25   am
    21    14    32    2
    22    15    24    1
    23    15    25    1
    24    15    26    2
    25    16    21    1
    26    17    20    1
    27    17    27    1
    28    18    30    1
    29    18    33    2
    30    19    27   am
    31    19    34    2
    32    20    31    1
    33    20    35    2
    34    21    22    1
    35    21    28    1
    36    21    29    1
    37    22    36    1
    38    22    37    1
    39    22    38    1
    40     1    39    1
    41     2    40    1
    42     3    41    1
    43     4    42    1
    44     5    43    1
    45     5    44    1
    46     6    45    1
    47     6    46    1
    48     7    47    1
    49     7    48    1
    50     8    49    1
    51     8    50    1
    52     9    51    1
    53     9    52    1
    54    16    53    1
    55    17    54    1
    56    23    55    1
    57    23    56    1
    58    24    57    1
    59    24    58    1
    60    25    59    1
    61    27    60    1
    62    28    61    1
    63    29    62    1
@<TRIPOS>SUBSTRUCTURE
     1 <0>         1 TEMP              0 ****  ****    0 ROOT

