
##########                                Name:        ZST_600_2HV5
##########                    Molecular_Weight:             418.376
##########                DOCK_Rotatable_Bonds:                   5
##########                       Formal_Charge:                  -1
##########                     HBond_Acceptors:                  10
##########                        HBond_Donors:                   0
##########                         Heavy_Atoms:                  29
##########                            HA_RMSDs:               7.876
##########                            HA_RMSDh:               7.684
##########                            HA_RMSDm:               6.306
##########                          Grid_Score:           12.231857
##########                     Grid_vdw_energy:          -31.146004
##########                      Grid_es_energy:           43.377861
##########           Internal_energy_repulsive:           13.634622

@<TRIPOS>MOLECULE
ZST_600_2HV5
 40 43 1 0 0
SMALL
USER_CHARGES


@<TRIPOS>ATOM
      1 C1         16.4319  -18.9094   17.0503 C.ar    1  <0>        -0.0611
      2 C2         17.3094  -18.5578   18.0578 C.ar    1  <0>        -0.0610
      3 C3         15.5104  -18.0211   16.5886 C.ar    1  <0>        -0.0521
      4 C4         17.2726  -17.3085   18.5877 C.ar    1  <0>        -0.0489
      5 C5         18.3063   -9.7640   14.0880 C.ar    1  <0>        -0.0489
      6 C6         17.9390  -11.0579   14.3253 C.ar    1  <0>        -0.0454
      7 C7         17.2902   -8.9722   16.1346 C.ar    1  <0>        -0.0236
      8 C8         13.5262  -15.9527   15.5360 C.3     1  <0>         0.0313
      9 C9         15.1667  -12.8316   18.5988 C.3     1  <0>         0.0866
     10 C10        17.9896   -8.7595   14.9777 C.ar    1  <0>         0.0569
     11 C11        15.4277  -16.7207   17.1025 C.ar    1  <0>         0.0103
     12 C12        16.3317  -16.3800   18.1166 C.ar    1  <0>         0.0475
     13 C13        17.2151  -11.2795   15.5096 C.ar    1  <0>         0.0393
     14 C14        16.8833  -10.2757   16.4224 C.ar    1  <0>         0.0791
     15 C15        14.4921  -15.7183   16.6664 C.2     1  <0>         0.0728
     16 C16        15.9317  -12.0151   17.5170 C.2     1  <0>         0.0988
     17 C17        16.2939  -15.0677   18.7060 C.2     1  <0>         0.2668
     18 C18        14.0927  -15.4602   14.2371 C.2     1  <0>         0.0476
     19 C19        18.4343   -7.3602   14.6380 C.3     1  <0>         0.4175
     20 N1         16.1527  -10.7388   17.5467 N.2     1  <0>        -0.2423
     21 N2         14.4576  -14.5385   17.1525 N.2     1  <0>        -0.1805
     22 N3         15.3596  -14.2189   18.1581 N.am    1  <0>        -0.1825
     23 O1         15.3060  -15.0859   14.1546 O.co2   1  <0>        -0.5494
     24 O2         17.0944  -14.7362   19.5792 O.2     1  <0>        -0.2682
     25 O3         13.2779  -15.2136   13.3149 O.co2   1  <0>        -0.5494
     26 F1         17.9965   -7.0472   13.4114 F       1  <0>        -0.1659
     27 F2         19.7045   -7.0908   14.6873 F       1  <0>        -0.1659
     28 F3         17.8301   -6.4436   15.3828 F       1  <0>        -0.1659
     29 S1         16.6026  -12.7596   16.0933 S.3     1  <0>        -0.0705
     30 H1         16.4779  -19.9007   16.6243 H       1  <0>         0.0618
     31 H2         18.0259  -19.2780   18.4243 H       1  <0>         0.0618
     32 H3         14.8277  -18.3253   15.8090 H       1  <0>         0.0624
     33 H4         17.9647  -17.0303   19.3687 H       1  <0>         0.0625
     34 H5         18.8538   -9.5238   13.1887 H       1  <0>         0.0623
     35 H6         18.1889  -11.8596   13.6462 H       1  <0>         0.0629
     36 H7         17.0602   -8.1565   16.8042 H       1  <0>         0.0645
     37 H8         13.3265  -17.0313   15.4535 H       1  <0>         0.0389
     38 H9         12.5911  -15.4131   15.7463 H       1  <0>         0.0389
     39 H10        15.5793  -12.6624   19.6043 H       1  <0>         0.0555
     40 H11        14.1013  -12.5603   18.6364 H       1  <0>         0.0555
@<TRIPOS>BOND
     1     1     2   ar
     2     1     3   ar
     3     2     4   ar
     4     3    11   ar
     5     4    12   ar
     6     5     6   ar
     7     5    10   ar
     8     6    13   ar
     9     7    10   ar
    10     7    14   ar
    11     8    15    1
    12     8    18    1
    13     9    16    1
    14     9    22    1
    15    10    19    1
    16    11    12   ar
    17    11    15    1
    18    12    17    1
    19    13    14   ar
    20    13    29    1
    21    14    20    1
    22    15    21    2
    23    16    20    2
    24    16    29    1
    25    17    22   am
    26    17    24    2
    27    18    23    1
    28    18    25    2
    29    19    26    1
    30    19    27    1
    31    19    28    1
    32    21    22    1
    33     1    30    1
    34     2    31    1
    35     3    32    1
    36     4    33    1
    37     5    34    1
    38     6    35    1
    39     7    36    1
    40     8    37    1
    41     8    38    1
    42     9    39    1
    43     9    40    1
@<TRIPOS>SUBSTRUCTURE
     1 <0>         1 TEMP              0 ****  ****    0 ROOT

