
##########                                Name:        ZST_600_2HV5
##########                    Molecular_Weight:             418.376
##########                DOCK_Rotatable_Bonds:                   5
##########                       Formal_Charge:                  -1
##########                     HBond_Acceptors:                  10
##########                        HBond_Donors:                   0
##########                         Heavy_Atoms:                  29
##########                            HA_RMSDs:               8.726
##########                            HA_RMSDh:               8.636
##########                            HA_RMSDm:               7.251
##########                          Grid_Score:            3.847809
##########                     Grid_vdw_energy:          -36.595207
##########                      Grid_es_energy:           40.443016
##########           Internal_energy_repulsive:           17.406197

@<TRIPOS>MOLECULE
ZST_600_2HV5
 40 43 1 0 0
SMALL
USER_CHARGES


@<TRIPOS>ATOM
      1 C1         16.1658  -16.6685   22.9241 C.ar    1  <0>        -0.0611
      2 C2         15.0015  -15.9259   22.9630 C.ar    1  <0>        -0.0610
      3 C3         16.7812  -16.9365   21.7405 C.ar    1  <0>        -0.0521
      4 C4         14.4665  -15.4377   21.8148 C.ar    1  <0>        -0.0489
      5 C5         16.3224   -8.9357   17.0296 C.ar    1  <0>        -0.0489
      6 C6         15.5448   -9.7712   17.7797 C.ar    1  <0>        -0.0454
      7 C7         16.9555  -10.6992   15.5008 C.ar    1  <0>        -0.0236
      8 C8         18.1608  -17.4265   19.0610 C.3     1  <0>         0.0313
      9 C9         14.7832  -15.0371   16.8937 C.3     1  <0>         0.0866
     10 C10        16.9992   -9.3975   15.9207 C.ar    1  <0>         0.0569
     11 C11        16.2699  -16.4593   20.5269 C.ar    1  <0>         0.0103
     12 C12        15.0942  -15.7007   20.5875 C.ar    1  <0>         0.0475
     13 C13        15.5022  -11.1105   17.3551 C.ar    1  <0>         0.0393
     14 C14        16.1814  -11.5978   16.2362 C.ar    1  <0>         0.0791
     15 C15        16.8608  -16.6878   19.2349 C.2     1  <0>         0.0728
     16 C16        15.2036  -13.5387   16.8732 C.2     1  <0>         0.0988
     17 C17        14.4998  -15.1929   19.3792 C.2     1  <0>         0.2668
     18 C18        19.2622  -16.7600   19.8311 C.2     1  <0>         0.0476
     19 C19        17.8339   -8.4073   15.1498 C.3     1  <0>         0.4175
     20 N1         15.9845  -12.9828   16.0015 N.2     1  <0>        -0.2423
     21 N2         16.3696  -16.2240   18.1519 N.2     1  <0>        -0.1805
     22 N3         15.2030  -15.4758   18.2307 N.am    1  <0>        -0.1825
     23 O1         19.1982  -15.5233   20.1234 O.co2   1  <0>        -0.5494
     24 O2         13.4826  -14.5021   19.4090 O.2     1  <0>        -0.2682
     25 O3         20.3337  -17.3997   19.9660 O.co2   1  <0>        -0.5494
     26 F1         18.3559   -7.5165   16.0032 F       1  <0>        -0.1659
     27 F2         17.2678   -7.7479   14.1839 F       1  <0>        -0.1659
     28 F3         18.9246   -8.9594   14.6346 F       1  <0>        -0.1659
     29 S1         14.6448  -12.4009   18.0667 S.3     1  <0>        -0.0705
     30 H1         16.5924  -17.0407   23.8438 H       1  <0>         0.0618
     31 H2         14.5161  -15.7335   23.9084 H       1  <0>         0.0618
     32 H3         17.6834  -17.5300   21.7367 H       1  <0>         0.0624
     33 H4         13.5615  -14.8491   21.8458 H       1  <0>         0.0625
     34 H5         16.4084   -7.8962   17.3096 H       1  <0>         0.0623
     35 H6         14.9976   -9.4248   18.6440 H       1  <0>         0.0629
     36 H7         17.5030  -11.0211   14.6272 H       1  <0>         0.0645
     37 H8         18.0394  -18.4563   19.4282 H       1  <0>         0.0389
     38 H9         18.4261  -17.4377   17.9936 H       1  <0>         0.0389
     39 H10        13.7000  -15.1584   16.7465 H       1  <0>         0.0555
     40 H11        15.2839  -15.6116   16.1005 H       1  <0>         0.0555
@<TRIPOS>BOND
     1     1     2   ar
     2     1     3   ar
     3     2     4   ar
     4     3    11   ar
     5     4    12   ar
     6     5     6   ar
     7     5    10   ar
     8     6    13   ar
     9     7    10   ar
    10     7    14   ar
    11     8    15    1
    12     8    18    1
    13     9    16    1
    14     9    22    1
    15    10    19    1
    16    11    12   ar
    17    11    15    1
    18    12    17    1
    19    13    14   ar
    20    13    29    1
    21    14    20    1
    22    15    21    2
    23    16    20    2
    24    16    29    1
    25    17    22   am
    26    17    24    2
    27    18    23    1
    28    18    25    2
    29    19    26    1
    30    19    27    1
    31    19    28    1
    32    21    22    1
    33     1    30    1
    34     2    31    1
    35     3    32    1
    36     4    33    1
    37     5    34    1
    38     6    35    1
    39     7    36    1
    40     8    37    1
    41     8    38    1
    42     9    39    1
    43     9    40    1
@<TRIPOS>SUBSTRUCTURE
     1 <0>         1 TEMP              0 ****  ****    0 ROOT

