
##########                                Name:        ZST_600_2HV5
##########                    Molecular_Weight:             418.376
##########                DOCK_Rotatable_Bonds:                   5
##########                       Formal_Charge:                  -1
##########                     HBond_Acceptors:                  10
##########                        HBond_Donors:                   0
##########                         Heavy_Atoms:                  29
##########                            HA_RMSDs:               7.994
##########                            HA_RMSDh:               7.753
##########                            HA_RMSDm:               6.466
##########                          Grid_Score:            5.333595
##########                     Grid_vdw_energy:          -34.513309
##########                      Grid_es_energy:           39.846905
##########           Internal_energy_repulsive:            9.419101

@<TRIPOS>MOLECULE
ZST_600_2HV5
 40 43 1 0 0
SMALL
USER_CHARGES


@<TRIPOS>ATOM
      1 C1         16.9849  -18.7852   17.8779 C.ar    1  <0>        -0.0611
      2 C2         17.6799  -18.1959   18.9163 C.ar    1  <0>        -0.0610
      3 C3         16.0279  -18.0947   17.2006 C.ar    1  <0>        -0.0521
      4 C4         17.4259  -16.9077   19.2612 C.ar    1  <0>        -0.0489
      5 C5         18.5106   -9.8362   14.2814 C.ar    1  <0>        -0.0489
      6 C6         18.4150  -11.1009   14.7879 C.ar    1  <0>        -0.0454
      7 C7         16.6568   -9.0329   15.6103 C.ar    1  <0>        -0.0236
      8 C8         13.9558  -16.4619   15.6632 C.3     1  <0>         0.0313
      9 C9         14.8089  -12.7932   18.4248 C.3     1  <0>         0.0866
     10 C10        17.6534   -8.8378   14.6929 C.ar    1  <0>         0.0569
     11 C11        15.7246  -16.7645   17.5177 C.ar    1  <0>         0.0103
     12 C12        16.4462  -16.1814   18.5670 C.ar    1  <0>         0.0475
     13 C13        17.3886  -11.3068   15.7259 C.ar    1  <0>         0.0393
     14 C14        16.5096  -10.3095   16.1544 C.ar    1  <0>         0.0791
     15 C15        14.7366  -15.9605   16.8484 C.2     1  <0>         0.0728
     16 C16        15.6875  -12.0057   17.4098 C.2     1  <0>         0.0988
     17 C17        16.1761  -14.8241   18.9618 C.2     1  <0>         0.2668
     18 C18        14.8097  -16.4833   14.4299 C.2     1  <0>         0.0476
     19 C19        17.8298   -7.4709   14.0832 C.3     1  <0>         0.4175
     20 N1         15.5589  -10.7518   17.1097 N.2     1  <0>        -0.2423
     21 N2         14.4988  -14.7458   17.1601 N.2     1  <0>        -0.1805
     22 N3         15.2222  -14.1848   18.2037 N.am    1  <0>        -0.1825
     23 O1         15.5849  -15.5121   14.1561 O.co2   1  <0>        -0.5494
     24 O2         16.8146  -14.2816   19.8623 O.2     1  <0>        -0.2682
     25 O3         14.5589  -17.3684   13.5761 O.co2   1  <0>        -0.5494
     26 F1         17.7192   -7.5678   12.7518 F       1  <0>        -0.1659
     27 F2         18.9226   -6.8184   14.3448 F       1  <0>        -0.1659
     28 F3         16.8279   -6.6531   14.3789 F       1  <0>        -0.1659
     29 S1         16.9928  -12.7546   16.5344 S.3     1  <0>        -0.0705
     30 H1         17.2037  -19.8058   17.6006 H       1  <0>         0.0618
     31 H2         18.4266  -18.7609   19.4544 H       1  <0>         0.0618
     32 H3         15.4904  -18.5828   16.4011 H       1  <0>         0.0624
     33 H4         17.9758  -16.4437   20.0667 H       1  <0>         0.0625
     34 H5         19.2702   -9.6144   13.5465 H       1  <0>         0.0623
     35 H6         19.0853  -11.8924   14.4868 H       1  <0>         0.0629
     36 H7         16.0044   -8.2238   15.9041 H       1  <0>         0.0645
     37 H8         13.6033  -17.4827   15.8724 H       1  <0>         0.0389
     38 H9         13.0970  -15.7961   15.4926 H       1  <0>         0.0389
     39 H10        14.9958  -12.4723   19.4602 H       1  <0>         0.0555
     40 H11        13.7355  -12.6511   18.2307 H       1  <0>         0.0555
@<TRIPOS>BOND
     1     1     2   ar
     2     1     3   ar
     3     2     4   ar
     4     3    11   ar
     5     4    12   ar
     6     5     6   ar
     7     5    10   ar
     8     6    13   ar
     9     7    10   ar
    10     7    14   ar
    11     8    15    1
    12     8    18    1
    13     9    16    1
    14     9    22    1
    15    10    19    1
    16    11    12   ar
    17    11    15    1
    18    12    17    1
    19    13    14   ar
    20    13    29    1
    21    14    20    1
    22    15    21    2
    23    16    20    2
    24    16    29    1
    25    17    22   am
    26    17    24    2
    27    18    23    1
    28    18    25    2
    29    19    26    1
    30    19    27    1
    31    19    28    1
    32    21    22    1
    33     1    30    1
    34     2    31    1
    35     3    32    1
    36     4    33    1
    37     5    34    1
    38     6    35    1
    39     7    36    1
    40     8    37    1
    41     8    38    1
    42     9    39    1
    43     9    40    1
@<TRIPOS>SUBSTRUCTURE
     1 <0>         1 TEMP              0 ****  ****    0 ROOT

