
##########                                Name:        ZST_600_2HV5
##########                    Molecular_Weight:             418.376
##########                DOCK_Rotatable_Bonds:                   5
##########                       Formal_Charge:                  -1
##########                     HBond_Acceptors:                  10
##########                        HBond_Donors:                   0
##########                         Heavy_Atoms:                  29
##########                            HA_RMSDs:              14.616
##########                            HA_RMSDh:              13.552
##########                            HA_RMSDm:              12.796
##########                          Grid_Score:            5.634956
##########                     Grid_vdw_energy:          -18.281088
##########                      Grid_es_energy:           23.916044
##########           Internal_energy_repulsive:            9.361517

@<TRIPOS>MOLECULE
ZST_600_2HV5
 40 43 1 0 0
SMALL
USER_CHARGES


@<TRIPOS>ATOM
      1 C1         21.3634  -16.0503    2.6021 C.ar    1  <0>        -0.0611
      2 C2         20.3707  -15.9680    3.5594 C.ar    1  <0>        -0.0610
      3 C3         22.5196  -15.3456    2.7361 C.ar    1  <0>        -0.0521
      4 C4         20.5480  -15.1924    4.6593 C.ar    1  <0>        -0.0489
      5 C5         23.9971  -16.2075   11.9043 C.ar    1  <0>        -0.0489
      6 C6         24.5352  -16.0731   10.6562 C.ar    1  <0>        -0.0454
      7 C7         22.6657  -14.2013   11.6791 C.ar    1  <0>        -0.0236
      8 C8         25.1268  -13.8087    3.1405 C.3     1  <0>         0.0313
      9 C9         23.4852  -12.0981    7.1646 C.3     1  <0>         0.0866
     10 C10        23.0851  -15.2939   12.3885 C.ar    1  <0>         0.0569
     11 C11        22.7522  -14.5284    3.8496 C.ar    1  <0>         0.0103
     12 C12        21.7382  -14.4651    4.8137 C.ar    1  <0>         0.0475
     13 C13        24.1115  -14.9488    9.9267 C.ar    1  <0>         0.0393
     14 C14        23.1903  -14.0116   10.3999 C.ar    1  <0>         0.0791
     15 C15        23.9469  -13.7584    4.0739 C.2     1  <0>         0.0728
     16 C16        23.5689  -13.0758    8.3726 C.2     1  <0>         0.0988
     17 C17        21.8984  -13.6315    5.9758 C.2     1  <0>         0.2668
     18 C18        25.8914  -15.0879    3.3128 C.2     1  <0>         0.0476
     19 C19        22.5409  -15.5189   13.7758 C.3     1  <0>         0.4175
     20 N1         22.9134  -12.9640    9.4845 N.2     1  <0>        -0.2423
     21 N2         24.1254  -13.0346    5.1099 N.2     1  <0>        -0.1805
     22 N3         23.1092  -12.9824    6.0542 N.am    1  <0>        -0.1825
     23 O1         25.3511  -16.1025    3.8584 O.co2   1  <0>        -0.5494
     24 O2         21.0337  -13.5799    6.8491 O.2     1  <0>        -0.2682
     25 O3         27.1305  -15.0440    3.1181 O.co2   1  <0>        -0.5494
     26 F1         23.5602  -15.7474   14.6143 F       1  <0>        -0.1659
     27 F2         21.6664  -16.4647   13.9462 F       1  <0>        -0.1659
     28 F3         22.0066  -14.4202   14.2928 F       1  <0>        -0.1659
     29 S1         24.5924  -14.4842    8.3585 S.3     1  <0>        -0.0705
     30 H1         21.2200  -16.6814    1.7374 H       1  <0>         0.0618
     31 H2         19.4522  -16.5217    3.4325 H       1  <0>         0.0618
     32 H3         23.2744  -15.4179    1.9670 H       1  <0>         0.0624
     33 H4         19.7761  -15.1352    5.4125 H       1  <0>         0.0625
     34 H5         24.2907  -17.0433   12.5220 H       1  <0>         0.0623
     35 H6         25.2412  -16.7854   10.2554 H       1  <0>         0.0629
     36 H7         21.9508  -13.5075   12.0962 H       1  <0>         0.0645
     37 H8         24.7660  -13.7441    2.1034 H       1  <0>         0.0389
     38 H9         25.7928  -12.9611    3.3595 H       1  <0>         0.0389
     39 H10        22.7359  -11.3100    7.3295 H       1  <0>         0.0555
     40 H11        24.4466  -11.5968    6.9787 H       1  <0>         0.0555
@<TRIPOS>BOND
     1     1     2   ar
     2     1     3   ar
     3     2     4   ar
     4     3    11   ar
     5     4    12   ar
     6     5     6   ar
     7     5    10   ar
     8     6    13   ar
     9     7    10   ar
    10     7    14   ar
    11     8    15    1
    12     8    18    1
    13     9    16    1
    14     9    22    1
    15    10    19    1
    16    11    12   ar
    17    11    15    1
    18    12    17    1
    19    13    14   ar
    20    13    29    1
    21    14    20    1
    22    15    21    2
    23    16    20    2
    24    16    29    1
    25    17    22   am
    26    17    24    2
    27    18    23    1
    28    18    25    2
    29    19    26    1
    30    19    27    1
    31    19    28    1
    32    21    22    1
    33     1    30    1
    34     2    31    1
    35     3    32    1
    36     4    33    1
    37     5    34    1
    38     6    35    1
    39     7    36    1
    40     8    37    1
    41     8    38    1
    42     9    39    1
    43     9    40    1
@<TRIPOS>SUBSTRUCTURE
     1 <0>         1 TEMP              0 ****  ****    0 ROOT

