
##########                                Name:        ZST_600_2HV5
##########                    Molecular_Weight:             418.376
##########                DOCK_Rotatable_Bonds:                   5
##########                       Formal_Charge:                  -1
##########                     HBond_Acceptors:                  10
##########                        HBond_Donors:                   0
##########                         Heavy_Atoms:                  29
##########                            HA_RMSDs:              10.469
##########                            HA_RMSDh:               9.779
##########                            HA_RMSDm:               8.493
##########                          Grid_Score:            6.687483
##########                     Grid_vdw_energy:          -25.003349
##########                      Grid_es_energy:           31.690832
##########           Internal_energy_repulsive:            9.230977

@<TRIPOS>MOLECULE
ZST_600_2HV5
 40 43 1 0 0
SMALL
USER_CHARGES


@<TRIPOS>ATOM
      1 C1         16.2219  -17.8394    8.4378 C.ar    1  <0>        -0.0611
      2 C2         15.7838  -16.5835    8.0644 C.ar    1  <0>        -0.0610
      3 C3         17.2353  -17.9849    9.3342 C.ar    1  <0>        -0.0521
      4 C4         16.3515  -15.4755    8.6054 C.ar    1  <0>        -0.0489
      5 C5         16.5530  -13.1454   17.1199 C.ar    1  <0>        -0.0489
      6 C6         17.3681  -14.0686   16.5295 C.ar    1  <0>        -0.0454
      7 C7         16.7231  -11.6203   15.2509 C.ar    1  <0>        -0.0236
      8 C8         19.4527  -18.2436   11.4172 C.3     1  <0>         0.0313
      9 C9         19.7204  -13.5893   11.6991 C.3     1  <0>         0.0866
     10 C10        16.2425  -11.9610   16.4862 C.ar    1  <0>         0.0569
     11 C11        17.8573  -16.8751    9.9201 C.ar    1  <0>         0.0103
     12 C12        17.3932  -15.6107    9.5360 C.ar    1  <0>         0.0475
     13 C13        17.8688  -13.7196   15.2632 C.ar    1  <0>         0.0393
     14 C14        17.5674  -12.5248   14.6055 C.ar    1  <0>         0.0791
     15 C15        18.9267  -16.9393   10.8807 C.2     1  <0>         0.0728
     16 C16        18.9166  -13.4176   13.0208 C.2     1  <0>         0.0988
     17 C17        17.9969  -14.4239   10.0819 C.2     1  <0>         0.2668
     18 C18        18.4111  -18.9431   12.2396 C.2     1  <0>         0.0476
     19 C19        15.3351  -10.9993   17.2094 C.3     1  <0>         0.4175
     20 N1         18.1859  -12.3950   13.3356 N.2     1  <0>        -0.2423
     21 N2         19.4590  -15.9026   11.4014 N.2     1  <0>        -0.1805
     22 N3         18.9877  -14.6577   11.0077 N.am    1  <0>        -0.1825
     23 O1         17.3347  -18.3506   12.5704 O.co2   1  <0>        -0.5494
     24 O2         17.5893  -13.3032    9.7804 O.2     1  <0>        -0.2682
     25 O3         18.7404  -20.0289   12.7762 O.co2   1  <0>        -0.5494
     26 F1         16.0780  -10.1820   17.9672 F       1  <0>        -0.1659
     27 F2         14.3933  -11.4893   17.9586 F       1  <0>        -0.1659
     28 F3         14.7469  -10.1428   16.3845 F       1  <0>        -0.1659
     29 S1         18.9104  -14.6318   14.2685 S.3     1  <0>        -0.0705
     30 H1         15.7547  -18.7157    8.0134 H       1  <0>         0.0618
     31 H2         14.9883  -16.4832    7.3408 H       1  <0>         0.0618
     32 H3         17.5672  -18.9778    9.5996 H       1  <0>         0.0624
     33 H4         16.0029  -14.4937    8.3207 H       1  <0>         0.0625
     34 H5         16.1450  -13.3465   18.0994 H       1  <0>         0.0623
     35 H6         17.6124  -15.0069   17.0052 H       1  <0>         0.0629
     36 H7         16.4572  -10.6805   14.7899 H       1  <0>         0.0645
     37 H8         19.7360  -18.8898   10.5732 H       1  <0>         0.0389
     38 H9         20.3315  -18.0430   12.0476 H       1  <0>         0.0389
     39 H10        19.7388  -12.6606   11.1099 H       1  <0>         0.0555
     40 H11        20.7661  -13.8710   11.8918 H       1  <0>         0.0555
@<TRIPOS>BOND
     1     1     2   ar
     2     1     3   ar
     3     2     4   ar
     4     3    11   ar
     5     4    12   ar
     6     5     6   ar
     7     5    10   ar
     8     6    13   ar
     9     7    10   ar
    10     7    14   ar
    11     8    15    1
    12     8    18    1
    13     9    16    1
    14     9    22    1
    15    10    19    1
    16    11    12   ar
    17    11    15    1
    18    12    17    1
    19    13    14   ar
    20    13    29    1
    21    14    20    1
    22    15    21    2
    23    16    20    2
    24    16    29    1
    25    17    22   am
    26    17    24    2
    27    18    23    1
    28    18    25    2
    29    19    26    1
    30    19    27    1
    31    19    28    1
    32    21    22    1
    33     1    30    1
    34     2    31    1
    35     3    32    1
    36     4    33    1
    37     5    34    1
    38     6    35    1
    39     7    36    1
    40     8    37    1
    41     8    38    1
    42     9    39    1
    43     9    40    1
@<TRIPOS>SUBSTRUCTURE
     1 <0>         1 TEMP              0 ****  ****    0 ROOT

