
##########                                Name:        ZST_600_2HV5
##########                    Molecular_Weight:             418.376
##########                DOCK_Rotatable_Bonds:                   5
##########                       Formal_Charge:                  -1
##########                     HBond_Acceptors:                  10
##########                        HBond_Donors:                   0
##########                         Heavy_Atoms:                  29
##########                            HA_RMSDs:              11.447
##########                            HA_RMSDh:              11.262
##########                            HA_RMSDm:              10.422
##########                          Grid_Score:            2.311321
##########                     Grid_vdw_energy:          -26.709780
##########                      Grid_es_energy:           29.021101
##########           Internal_energy_repulsive:           12.906185

@<TRIPOS>MOLECULE
ZST_600_2HV5
 40 43 1 0 0
SMALL
USER_CHARGES


@<TRIPOS>ATOM
      1 C1         20.0633  -15.4001    8.3659 C.ar    1  <0>        -0.0611
      2 C2         19.6107  -14.1185    8.1184 C.ar    1  <0>        -0.0610
      3 C3         21.3945  -15.6817    8.3577 C.ar    1  <0>        -0.0521
      4 C4         20.4963  -13.1174    7.8811 C.ar    1  <0>        -0.0489
      5 C5         24.7732   -8.1602   12.5720 C.ar    1  <0>        -0.0489
      6 C6         24.2840   -9.3698   12.1682 C.ar    1  <0>        -0.0454
      7 C7         25.9527   -7.8055   10.4909 C.ar    1  <0>        -0.0236
      8 C8         24.3979  -16.2289    8.4131 C.3     1  <0>         0.0313
      9 C9         25.2260  -11.7417    7.4162 C.3     1  <0>         0.0866
     10 C10        25.5793   -7.4065   11.7456 C.ar    1  <0>         0.0569
     11 C11        22.3502  -14.6868    8.1156 C.ar    1  <0>         0.0103
     12 C12        21.8725  -13.3922    7.8761 C.ar    1  <0>         0.0475
     13 C13        24.6704   -9.7860   10.8824 C.ar    1  <0>         0.0393
     14 C14        25.4869   -9.0380   10.0310 C.ar    1  <0>         0.0791
     15 C15        23.7738  -14.8959    8.0979 C.2     1  <0>         0.0728
     16 C16        25.1559  -10.8113    8.6619 C.2     1  <0>         0.0988
     17 C17        22.7947  -12.3221    7.6010 C.2     1  <0>         0.2668
     18 C18        23.9193  -16.7440    9.7383 C.2     1  <0>         0.0476
     19 C19        26.0744   -6.0834   12.2706 C.3     1  <0>         0.4175
     20 N1         25.7379   -9.6599    8.7811 N.2     1  <0>        -0.2423
     21 N2         24.6134  -13.9583    7.8854 N.2     1  <0>        -0.1805
     22 N3         24.1220  -12.6818    7.6481 N.am    1  <0>        -0.1825
     23 O1         23.7668  -15.9581   10.7273 O.co2   1  <0>        -0.5494
     24 O2         22.4011  -11.1719    7.4139 O.2     1  <0>        -0.2682
     25 O3         23.9035  -17.9891    9.8959 O.co2   1  <0>        -0.5494
     26 F1         26.3111   -6.1946   13.5843 F       1  <0>        -0.1659
     27 F2         25.3310   -5.0335   12.0882 F       1  <0>        -0.1659
     28 F3         27.2772   -5.7736   11.8045 F       1  <0>        -0.1659
     29 S1         24.2487  -11.2335   10.0866 S.3     1  <0>        -0.0705
     30 H1         19.3523  -16.1875    8.5682 H       1  <0>         0.0618
     31 H2         18.5505  -13.9127    8.1137 H       1  <0>         0.0618
     32 H3         21.7213  -16.6945    8.5418 H       1  <0>         0.0624
     33 H4         20.1432  -12.1135    7.6969 H       1  <0>         0.0625
     34 H5         24.5245   -7.7881   13.5548 H       1  <0>         0.0623
     35 H6         23.6414   -9.9683   12.7968 H       1  <0>         0.0629
     36 H7         26.5882   -7.1857    9.8757 H       1  <0>         0.0645
     37 H8         24.1215  -16.9483    7.6282 H       1  <0>         0.0389
     38 H9         25.4912  -16.1131    8.4476 H       1  <0>         0.0389
     39 H10        25.0927  -11.1799    6.4800 H       1  <0>         0.0555
     40 H11        26.1943  -12.2592    7.3480 H       1  <0>         0.0555
@<TRIPOS>BOND
     1     1     2   ar
     2     1     3   ar
     3     2     4   ar
     4     3    11   ar
     5     4    12   ar
     6     5     6   ar
     7     5    10   ar
     8     6    13   ar
     9     7    10   ar
    10     7    14   ar
    11     8    15    1
    12     8    18    1
    13     9    16    1
    14     9    22    1
    15    10    19    1
    16    11    12   ar
    17    11    15    1
    18    12    17    1
    19    13    14   ar
    20    13    29    1
    21    14    20    1
    22    15    21    2
    23    16    20    2
    24    16    29    1
    25    17    22   am
    26    17    24    2
    27    18    23    1
    28    18    25    2
    29    19    26    1
    30    19    27    1
    31    19    28    1
    32    21    22    1
    33     1    30    1
    34     2    31    1
    35     3    32    1
    36     4    33    1
    37     5    34    1
    38     6    35    1
    39     7    36    1
    40     8    37    1
    41     8    38    1
    42     9    39    1
    43     9    40    1
@<TRIPOS>SUBSTRUCTURE
     1 <0>         1 TEMP              0 ****  ****    0 ROOT

