
##########                                Name:        ZST_600_2HV5
##########                    Molecular_Weight:             418.376
##########                DOCK_Rotatable_Bonds:                   5
##########                       Formal_Charge:                  -1
##########                     HBond_Acceptors:                  10
##########                        HBond_Donors:                   0
##########                         Heavy_Atoms:                  29
##########                            HA_RMSDs:               8.784
##########                            HA_RMSDh:               8.657
##########                            HA_RMSDm:               7.299
##########                          Grid_Score:            7.139198
##########                     Grid_vdw_energy:          -27.338902
##########                      Grid_es_energy:           34.478100
##########           Internal_energy_repulsive:            8.596710

@<TRIPOS>MOLECULE
ZST_600_2HV5
 40 43 1 0 0
SMALL
USER_CHARGES


@<TRIPOS>ATOM
      1 C1         15.1964  -18.1552   11.5313 C.ar    1  <0>        -0.0611
      2 C2         14.8359  -16.9742   10.9117 C.ar    1  <0>        -0.0610
      3 C3         16.4026  -18.2770   12.1491 C.ar    1  <0>        -0.0521
      4 C4         15.6796  -15.9109   10.9291 C.ar    1  <0>        -0.0489
      5 C5         17.1999   -9.9101   16.1590 C.ar    1  <0>        -0.0489
      6 C6         17.4361  -11.2552   16.1718 C.ar    1  <0>        -0.0454
      7 C7         18.2999   -9.6141   14.0258 C.ar    1  <0>        -0.0236
      8 C8         19.0863  -18.4559   13.5945 C.3     1  <0>         0.0313
      9 C9         20.0351  -14.0521   12.3616 C.3     1  <0>         0.0866
     10 C10        17.6202   -9.1236   15.1075 C.ar    1  <0>         0.0569
     11 C11        17.3113  -17.2120   12.1938 C.ar    1  <0>         0.0103
     12 C12        16.9242  -16.0202   11.5682 C.ar    1  <0>         0.0475
     13 C13        18.1394  -11.7620   15.0653 C.ar    1  <0>         0.0393
     14 C14        18.5747  -10.9819   13.9916 C.ar    1  <0>         0.0791
     15 C15        18.6004  -17.2525   12.8319 C.2     1  <0>         0.0728
     16 C16        19.3514  -12.9785   13.2572 C.2     1  <0>         0.0988
     17 C17        17.8138  -14.8890   11.5571 C.2     1  <0>         0.2668
     18 C18        18.4200  -18.5445   14.9356 C.2     1  <0>         0.0476
     19 C19        17.3170   -7.6488   15.1742 C.3     1  <0>         0.4175
     20 N1         19.2601  -11.7143   12.9886 N.2     1  <0>        -0.2423
     21 N2         19.3952  -16.2542   12.8613 N.2     1  <0>        -0.1805
     22 N3         18.9959  -15.0816   12.2346 N.am    1  <0>        -0.1825
     23 O1         17.7339  -17.5734   15.3888 O.co2   1  <0>        -0.5494
     24 O2         17.4858  -13.8235   11.0375 O.2     1  <0>        -0.2682
     25 O3         18.7547  -19.4993   15.6784 O.co2   1  <0>        -0.5494
     26 F1         17.9828   -7.1111   16.2047 F       1  <0>        -0.1659
     27 F2         16.0743   -7.2812   15.2687 F       1  <0>        -0.1659
     28 F3         17.8254   -6.9818   14.1463 F       1  <0>        -0.1659
     29 S1         18.6024  -13.3774   14.7775 S.3     1  <0>        -0.0705
     30 H1         14.5129  -18.9914   11.5252 H       1  <0>         0.0618
     31 H2         13.8812  -16.8968   10.4126 H       1  <0>         0.0618
     32 H3         16.6651  -19.2152   12.6151 H       1  <0>         0.0624
     33 H4         15.3942  -14.9845   10.4529 H       1  <0>         0.0625
     34 H5         16.6753   -9.4552   16.9860 H       1  <0>         0.0623
     35 H6         17.1037  -11.8891   16.9806 H       1  <0>         0.0629
     36 H7         18.6138   -8.9629   13.2233 H       1  <0>         0.0645
     37 H8         18.8529  -19.3633   13.0181 H       1  <0>         0.0389
     38 H9         20.1735  -18.3728   13.7395 H       1  <0>         0.0389
     39 H10        20.3241  -13.6420   11.3827 H       1  <0>         0.0555
     40 H11        20.9484  -14.4503   12.8280 H       1  <0>         0.0555
@<TRIPOS>BOND
     1     1     2   ar
     2     1     3   ar
     3     2     4   ar
     4     3    11   ar
     5     4    12   ar
     6     5     6   ar
     7     5    10   ar
     8     6    13   ar
     9     7    10   ar
    10     7    14   ar
    11     8    15    1
    12     8    18    1
    13     9    16    1
    14     9    22    1
    15    10    19    1
    16    11    12   ar
    17    11    15    1
    18    12    17    1
    19    13    14   ar
    20    13    29    1
    21    14    20    1
    22    15    21    2
    23    16    20    2
    24    16    29    1
    25    17    22   am
    26    17    24    2
    27    18    23    1
    28    18    25    2
    29    19    26    1
    30    19    27    1
    31    19    28    1
    32    21    22    1
    33     1    30    1
    34     2    31    1
    35     3    32    1
    36     4    33    1
    37     5    34    1
    38     6    35    1
    39     7    36    1
    40     8    37    1
    41     8    38    1
    42     9    39    1
    43     9    40    1
@<TRIPOS>SUBSTRUCTURE
     1 <0>         1 TEMP              0 ****  ****    0 ROOT

