
##########                                Name:        ZST_600_2HV5
##########                    Molecular_Weight:             418.376
##########                DOCK_Rotatable_Bonds:                   5
##########                       Formal_Charge:                  -1
##########                     HBond_Acceptors:                  10
##########                        HBond_Donors:                   0
##########                         Heavy_Atoms:                  29
##########                            HA_RMSDs:               0.562
##########                            HA_RMSDh:               0.562
##########                            HA_RMSDm:               0.562
##########                          Grid_Score:           16.596386
##########                     Grid_vdw_energy:          -55.275623
##########                      Grid_es_energy:           71.872009
##########           Internal_energy_repulsive:            9.577935

@<TRIPOS>MOLECULE
ZST_600_2HV5
 40 43 1 0 0
SMALL
USER_CHARGES


@<TRIPOS>ATOM
      1 C1         14.7529  -11.1275   17.9511 C.ar    1  <0>        -0.0611
      2 C2         15.0334  -11.9518   16.8786 C.ar    1  <0>        -0.0610
      3 C3         15.3640   -9.9183   18.0780 C.ar    1  <0>        -0.0521
      4 C4         15.9134  -11.5531   15.9250 C.ar    1  <0>        -0.0489
      5 C5         15.1903   -4.5542   10.7171 C.ar    1  <0>        -0.0489
      6 C6         15.0585   -5.6620   11.5050 C.ar    1  <0>        -0.0454
      7 C7         17.5594   -4.3679   11.1646 C.ar    1  <0>        -0.0236
      8 C8         16.7022   -7.1797   18.2570 C.3     1  <0>         0.0313
      9 C9         19.0084   -8.0560   14.2912 C.3     1  <0>         0.0866
     10 C10        16.4124   -3.9370   10.5552 C.ar    1  <0>         0.0569
     11 C11        16.2819   -9.4601   17.1244 C.ar    1  <0>         0.0103
     12 C12        16.5462  -10.3057   16.0397 C.ar    1  <0>         0.0475
     13 C13        16.2333   -6.1042   12.1377 C.ar    1  <0>         0.0393
     14 C14        17.4798   -5.4921   11.9877 C.ar    1  <0>         0.0791
     15 C15        16.9646   -8.1945   17.1767 C.2     1  <0>         0.0728
     16 C16        18.1169   -7.1495   13.3934 C.2     1  <0>         0.0988
     17 C17        17.4924   -9.9101   15.0301 C.2     1  <0>         0.2668
     18 C18        15.4235   -6.4395   17.9967 C.2     1  <0>         0.0476
     19 C19        16.4679   -2.7205    9.6673 C.3     1  <0>         0.4175
     20 N1         18.5204   -6.1184   12.7206 N.2     1  <0>        -0.2423
     21 N2         17.7859   -7.8080   16.2793 N.2     1  <0>        -0.1805
     22 N3         18.0371   -8.6597   15.2122 N.am    1  <0>        -0.1825
     23 O1         14.5924   -6.8580   17.1290 O.co2   1  <0>        -0.5494
     24 O2         17.7214  -10.6235   14.0546 O.2     1  <0>        -0.2682
     25 O3         15.3189   -5.2890   18.4873 O.co2   1  <0>        -0.5494
     26 F1         15.4263   -1.9262    9.9472 F       1  <0>        -0.1659
     27 F2         16.4961   -2.9003    8.3807 F       1  <0>        -0.1659
     28 F3         17.4948   -1.9315    9.9555 F       1  <0>        -0.1659
     29 S1         16.4123   -7.4367   13.1859 S.3     1  <0>        -0.0705
     30 H1         14.0404  -11.4464   18.6974 H       1  <0>         0.0618
     31 H2         14.5516  -12.9151   16.7986 H       1  <0>         0.0618
     32 H3         15.1363   -9.2985   18.9326 H       1  <0>         0.0624
     33 H4         16.1258  -12.1933   15.0815 H       1  <0>         0.0625
     34 H5         14.3228   -4.1553   10.2124 H       1  <0>         0.0623
     35 H6         14.1121   -6.1660   11.6338 H       1  <0>         0.0629
     36 H7         18.4972   -3.8540   11.0133 H       1  <0>         0.0645
     37 H8         16.6254   -7.6980   19.2242 H       1  <0>         0.0389
     38 H9         17.5338   -6.4602   18.2819 H       1  <0>         0.0389
     39 H10        19.5387   -8.8180   13.7014 H       1  <0>         0.0555
     40 H11        19.7714   -7.4733   14.8281 H       1  <0>         0.0555
@<TRIPOS>BOND
     1     1     2   ar
     2     1     3   ar
     3     2     4   ar
     4     3    11   ar
     5     4    12   ar
     6     5     6   ar
     7     5    10   ar
     8     6    13   ar
     9     7    10   ar
    10     7    14   ar
    11     8    15    1
    12     8    18    1
    13     9    16    1
    14     9    22    1
    15    10    19    1
    16    11    12   ar
    17    11    15    1
    18    12    17    1
    19    13    14   ar
    20    13    29    1
    21    14    20    1
    22    15    21    2
    23    16    20    2
    24    16    29    1
    25    17    22   am
    26    17    24    2
    27    18    23    1
    28    18    25    2
    29    19    26    1
    30    19    27    1
    31    19    28    1
    32    21    22    1
    33     1    30    1
    34     2    31    1
    35     3    32    1
    36     4    33    1
    37     5    34    1
    38     6    35    1
    39     7    36    1
    40     8    37    1
    41     8    38    1
    42     9    39    1
    43     9    40    1
@<TRIPOS>SUBSTRUCTURE
     1 <0>         1 TEMP              0 ****  ****    0 ROOT

