
##########                                Name:        ZST_600_2HV5
##########                    Molecular_Weight:             418.376
##########                DOCK_Rotatable_Bonds:                   5
##########                       Formal_Charge:                  -1
##########                     HBond_Acceptors:                  10
##########                        HBond_Donors:                   0
##########                         Heavy_Atoms:                  29
##########                            HA_RMSDs:               9.798
##########                            HA_RMSDh:               9.653
##########                            HA_RMSDm:               8.992
##########                          Grid_Score:            6.333498
##########                     Grid_vdw_energy:          -26.356752
##########                      Grid_es_energy:           32.690250
##########           Internal_energy_repulsive:           10.075071

@<TRIPOS>MOLECULE
ZST_600_2HV5
 40 43 1 0 0
SMALL
USER_CHARGES


@<TRIPOS>ATOM
      1 C1         15.3678  -15.1469   20.3297 C.ar    1  <0>        -0.0611
      2 C2         14.8358  -13.9642   19.8534 C.ar    1  <0>        -0.0610
      3 C3         15.4515  -16.2444   19.5297 C.ar    1  <0>        -0.0521
      4 C4         14.4055  -13.8797   18.5687 C.ar    1  <0>        -0.0489
      5 C5         18.9168  -13.9276   11.3744 C.ar    1  <0>        -0.0489
      6 C6         18.4482  -13.9867   12.6559 C.ar    1  <0>        -0.0454
      7 C7         16.9579  -15.0265   10.4782 C.ar    1  <0>        -0.0236
      8 C8         15.6932  -18.6438   17.6569 C.3     1  <0>         0.0313
      9 C9         13.7582  -16.1450   14.2181 C.3     1  <0>         0.0866
     10 C10        18.1807  -14.4319   10.3233 C.ar    1  <0>         0.0569
     11 C11        15.0195  -16.2122   18.1977 C.ar    1  <0>         0.0103
     12 C12        14.4919  -15.0019   17.7304 C.ar    1  <0>         0.0475
     13 C13        17.1952  -14.6022   12.8199 C.ar    1  <0>         0.0393
     14 C14        16.4352  -15.1202   11.7687 C.ar    1  <0>         0.0791
     15 C15        15.0801  -17.3210   17.2827 C.2     1  <0>         0.0728
     16 C16        15.0093  -15.6196   13.4559 C.2     1  <0>         0.0988
     17 C17        14.0104  -14.8988   16.3781 C.2     1  <0>         0.2668
     18 C18        17.1896  -18.5845   17.5676 C.2     1  <0>         0.0476
     19 C19        18.7727  -14.3244    8.9415 C.3     1  <0>         0.4175
     20 N1         15.2019  -15.6901   12.1765 N.2     1  <0>        -0.2423
     21 N2         14.6868  -17.2469   16.0707 N.2     1  <0>        -0.1805
     22 N3         14.1651  -16.0401   15.6251 N.am    1  <0>        -0.1825
     23 O1         17.7627  -17.8674   16.6865 O.co2   1  <0>        -0.5494
     24 O2         13.5674  -13.8396   15.9367 O.2     1  <0>        -0.2682
     25 O3         17.8359  -19.4347   18.2269 O.co2   1  <0>        -0.5494
     26 F1         20.0808  -14.6058    9.0024 F       1  <0>        -0.1659
     27 F2         18.6371  -13.2019    8.3012 F       1  <0>        -0.1659
     28 F3         18.3296  -15.2734    8.1272 F       1  <0>        -0.1659
     29 S1         16.3381  -14.8467   14.2732 S.3     1  <0>        -0.0705
     30 H1         15.7212  -15.2010   21.3488 H       1  <0>         0.0618
     31 H2         14.7622  -13.1055   20.5042 H       1  <0>         0.0618
     32 H3         15.8600  -17.1603   19.9305 H       1  <0>         0.0624
     33 H4         13.9982  -12.9525   18.1932 H       1  <0>         0.0625
     34 H5         19.8797  -13.4785   11.1812 H       1  <0>         0.0623
     35 H6         19.0050  -13.5860   13.4901 H       1  <0>         0.0629
     36 H7         16.4142  -15.4112    9.6279 H       1  <0>         0.0645
     37 H8         15.4057  -18.8926   18.6891 H       1  <0>         0.0389
     38 H9         15.3238  -19.4174   16.9677 H       1  <0>         0.0389
     39 H10        12.8666  -15.5371   14.0054 H       1  <0>         0.0555
     40 H11        13.5171  -17.1816   13.9398 H       1  <0>         0.0555
@<TRIPOS>BOND
     1     1     2   ar
     2     1     3   ar
     3     2     4   ar
     4     3    11   ar
     5     4    12   ar
     6     5     6   ar
     7     5    10   ar
     8     6    13   ar
     9     7    10   ar
    10     7    14   ar
    11     8    15    1
    12     8    18    1
    13     9    16    1
    14     9    22    1
    15    10    19    1
    16    11    12   ar
    17    11    15    1
    18    12    17    1
    19    13    14   ar
    20    13    29    1
    21    14    20    1
    22    15    21    2
    23    16    20    2
    24    16    29    1
    25    17    22   am
    26    17    24    2
    27    18    23    1
    28    18    25    2
    29    19    26    1
    30    19    27    1
    31    19    28    1
    32    21    22    1
    33     1    30    1
    34     2    31    1
    35     3    32    1
    36     4    33    1
    37     5    34    1
    38     6    35    1
    39     7    36    1
    40     8    37    1
    41     8    38    1
    42     9    39    1
    43     9    40    1
@<TRIPOS>SUBSTRUCTURE
     1 <0>         1 TEMP              0 ****  ****    0 ROOT

