
##########                                Name:      UIP_H5555_1YPE
##########                    Molecular_Weight:             448.565
##########                DOCK_Rotatable_Bonds:                   4
##########                       Formal_Charge:              2.0001
##########                     HBond_Acceptors:                   7
##########                        HBond_Donors:                   5
##########                         Heavy_Atoms:                  33
##########                            HA_RMSDs:               0.591
##########                            HA_RMSDh:               0.591
##########                            HA_RMSDm:               0.571
##########                          Grid_Score:         -189.239807
##########                     Grid_vdw_energy:          -53.411896
##########                      Grid_es_energy:         -135.827911
##########           Internal_energy_repulsive:           13.276354

@<TRIPOS>MOLECULE
UIP_H5555_1YPE
 65 70 1 0 0
SMALL
USER_CHARGES


@<TRIPOS>ATOM
      1 C1         20.9772  -12.1804   18.3555 C.3     1  <0>        -0.0636
      2 C2         14.2854   -9.9447   21.6361 C.ar    1  <0>        -0.0524
      3 C3         13.6501  -12.2106   21.1425 C.ar    1  <0>        -0.0524
      4 C4         13.2736   -9.8388   22.5722 C.ar    1  <0>        -0.0465
      5 C5         12.6045  -12.1112   22.0765 C.ar    1  <0>        -0.0465
      6 C6         18.8464  -14.4300   24.0133 C.ar    1  <0>        -0.0545
      7 C7         19.4672  -14.2694   25.2702 C.ar    1  <0>        -0.0287
      8 C8         20.9461  -14.4393   22.7632 C.ar    1  <0>        -0.0244
      9 C9         15.1736  -12.0068   16.5291 C.3     1  <0>        -0.0074
     10 C10        16.6021  -11.6829   16.9262 C.3     1  <0>        -0.0045
     11 C11        14.3869  -12.0251   17.8640 C.3     1  <0>        -0.0308
     12 C12        23.0387  -14.2303   25.7120 C.3     1  <0>         0.1600
     13 C13        20.3061  -12.2778   19.7319 C.3     1  <0>        -0.0366
     14 C14        18.7858  -14.6699   21.4600 C.3     1  <0>         0.0401
     15 C15        14.5058  -11.1299   20.9129 C.ar    1  <0>         0.0010
     16 C16        12.4094  -10.9244   22.7991 C.ar    1  <0>         0.0611
     17 C17        19.5426  -14.5264   22.7646 C.ar    1  <0>        -0.0275
     18 C18        20.8589  -14.1630   25.2218 C.ar    1  <0>         0.1090
     19 C19        21.5811  -14.2634   24.0150 C.ar    1  <0>         0.1093
     20 C20        16.7341  -12.4919   18.2350 C.3     1  <0>        -0.0146
     21 C21        18.8712  -12.8480   19.5856 C.3     1  <0>         0.0349
     22 C22        15.6211  -11.2160   19.9082 C.3     1  <0>         0.0171
     23 C23        17.8154  -11.7919   19.1248 C.3     1  <0>         0.0372
     24 C24        17.0446  -11.4431   20.4366 C.3     1  <0>         0.0923
     25 C25        17.1907  -12.7652   21.2312 C.2     1  <0>         0.2255
     26 C26        11.3480  -10.8643   23.7411 C.cat   1  <0>         0.2605
     27 N1         11.0781   -9.7693   24.4998 N.pl3   1  <0>        -0.3060
     28 N2         10.5230  -11.9045   23.9458 N.pl3   1  <0>        -0.2158
     29 N3         15.3933  -12.3242   18.9213 N.4     1  <0>         0.2436
     30 N4         18.3432  -13.3860   20.8077 N.am    1  <0>        -0.2932
     31 O1         16.6237  -12.9845   22.3331 O.2     1  <0>        -0.2750
     32 O2         21.7255  -13.8488   26.2512 O.3     1  <0>        -0.3151
     33 O3         22.9578  -14.3490   24.2675 O.3     1  <0>        -0.3150
     34 H1         21.9934  -11.7753   18.4703 H       1  <0>         0.0230
     35 H2         21.0308  -13.1813   17.9022 H       1  <0>         0.0230
     36 H3         20.3884  -11.5150   17.7070 H       1  <0>         0.0230
     37 H4         14.9246   -9.0931   21.4555 H       1  <0>         0.0622
     38 H5         13.7937  -13.1315   20.5969 H       1  <0>         0.0622
     39 H6         13.1470   -8.9222   23.1292 H       1  <0>         0.0626
     40 H7         11.9476  -12.9530   22.2389 H       1  <0>         0.0626
     41 H8         17.7680  -14.4843   23.9907 H       1  <0>         0.0622
     42 H9         18.9110  -14.2318   26.1953 H       1  <0>         0.0644
     43 H10        21.5141  -14.5039   21.8469 H       1  <0>         0.0647
     44 H11        14.7716  -11.2462   15.8435 H       1  <0>         0.0319
     45 H12        15.1154  -12.9814   16.0224 H       1  <0>         0.0319
     46 H13        17.3306  -11.9966   16.1640 H       1  <0>         0.0322
     47 H14        16.7601  -10.6054   17.0814 H       1  <0>         0.0322
     48 H15        13.9071  -11.0523   18.0468 H       1  <0>         0.0815
     49 H16        13.6025  -12.7960   17.8435 H       1  <0>         0.0815
     50 H17        23.7793  -13.4606   25.9747 H       1  <0>         0.0880
     51 H18        23.3436  -15.1959   26.1417 H       1  <0>         0.0880
     52 H19        20.8972  -12.9438   20.3777 H       1  <0>         0.0281
     53 H20        20.2542  -11.2756   20.1822 H       1  <0>         0.0281
     54 H21        19.4498  -15.1859   20.7509 H       1  <0>         0.0514
     55 H22        17.8815  -15.2603   21.6688 H       1  <0>         0.0514
     56 H23        17.0060  -13.5442   18.0660 H       1  <0>         0.0855
     57 H24        19.0093  -13.6303   18.8247 H       1  <0>         0.0505
     58 H25        15.5800  -10.2055   19.4753 H       1  <0>         0.0912
     59 H26        18.2905  -10.9524   18.5957 H       1  <0>         0.0383
     60 H27        17.3566  -10.5884   21.0548 H       1  <0>         0.0459
     61 H28        10.3149   -9.7843   25.1458 H       1  <0>         0.1477
     62 H29        11.6429   -8.9487   24.4120 H       1  <0>         0.1477
     63 H30         9.7829  -11.8317   24.6143 H       1  <0>         0.4359
     64 H31        10.6490  -12.7517   23.4296 H       1  <0>         0.4359
     65 H32        15.0446  -13.1244   19.4093 H       1  <0>         0.2043
@<TRIPOS>BOND
     1     1    13    1
     2     2     4   ar
     3     2    15   ar
     4     3     5   ar
     5     3    15   ar
     6     4    16   ar
     7     5    16   ar
     8     6     7   ar
     9     6    17   ar
    10     7    18   ar
    11     8    17   ar
    12     8    19   ar
    13     9    10    1
    14     9    11    1
    15    10    20    1
    16    11    29    1
    17    12    32    1
    18    12    33    1
    19    13    21    1
    20    14    17    1
    21    14    30    1
    22    15    22    1
    23    16    26    1
    24    18    19   ar
    25    18    32    1
    26    19    33    1
    27    20    23    1
    28    20    29    1
    29    21    23    1
    30    21    30    1
    31    22    24    1
    32    22    29    1
    33    23    24    1
    34    24    25    1
    35    25    30   am
    36    25    31    2
    37    26    27    1
    38    26    28    2
    39     1    34    1
    40     1    35    1
    41     1    36    1
    42     2    37    1
    43     3    38    1
    44     4    39    1
    45     5    40    1
    46     6    41    1
    47     7    42    1
    48     8    43    1
    49     9    44    1
    50     9    45    1
    51    10    46    1
    52    10    47    1
    53    11    48    1
    54    11    49    1
    55    12    50    1
    56    12    51    1
    57    13    52    1
    58    13    53    1
    59    14    54    1
    60    14    55    1
    61    20    56    1
    62    21    57    1
    63    22    58    1
    64    23    59    1
    65    24    60    1
    66    27    61    1
    67    27    62    1
    68    28    63    1
    69    28    64    1
    70    29    65    1
@<TRIPOS>SUBSTRUCTURE
     1 <0>         1 TEMP              0 ****  ****    0 ROOT

