
##########                                Name:      UIP_H5555_1YPE
##########                    Molecular_Weight:             448.565
##########                DOCK_Rotatable_Bonds:                   4
##########                       Formal_Charge:              2.0001
##########                     HBond_Acceptors:                   7
##########                        HBond_Donors:                   5
##########                         Heavy_Atoms:                  33
##########                            HA_RMSDs:               0.486
##########                            HA_RMSDh:               0.486
##########                            HA_RMSDm:               0.486
##########                          Grid_Score:         -189.097885
##########                     Grid_vdw_energy:          -54.361485
##########                      Grid_es_energy:         -134.736404
##########           Internal_energy_repulsive:           14.957482

@<TRIPOS>MOLECULE
UIP_H5555_1YPE
 65 70 1 0 0
SMALL
USER_CHARGES


@<TRIPOS>ATOM
      1 C1         20.8910  -12.2744   18.3541 C.3     1  <0>        -0.0636
      2 C2         14.3498  -10.0198   21.5830 C.ar    1  <0>        -0.0524
      3 C3         13.5253  -12.2052   21.0122 C.ar    1  <0>        -0.0524
      4 C4         13.3363   -9.8521   22.5082 C.ar    1  <0>        -0.0465
      5 C5         12.4776  -12.0409   21.9346 C.ar    1  <0>        -0.0465
      6 C6         18.9651  -14.3948   24.1568 C.ar    1  <0>        -0.0545
      7 C7         19.6629  -14.1638   25.3613 C.ar    1  <0>        -0.0287
      8 C8         20.9689  -14.3279   22.7597 C.ar    1  <0>        -0.0244
      9 C9         15.1600  -12.3587   16.5121 C.3     1  <0>        -0.0074
     10 C10        16.5881  -12.0157   16.8942 C.3     1  <0>        -0.0045
     11 C11        14.3673  -12.2878   17.8417 C.3     1  <0>        -0.0308
     12 C12        23.2488  -13.9193   25.5442 C.3     1  <0>         0.1600
     13 C13        20.2769  -12.4435   19.7500 C.3     1  <0>        -0.0366
     14 C14        18.7385  -14.7130   21.6215 C.3     1  <0>         0.0401
     15 C15        14.4764  -11.1983   20.8270 C.ar    1  <0>         0.0010
     16 C16        12.3762  -10.8630   22.6903 C.ar    1  <0>         0.0611
     17 C17        19.5760  -14.4904   22.8642 C.ar    1  <0>        -0.0275
     18 C18        21.0396  -13.9840   25.2103 C.ar    1  <0>         0.1090
     19 C19        21.6795  -14.0811   23.9577 C.ar    1  <0>         0.1093
     20 C20        16.7107  -12.7391   18.2531 C.3     1  <0>        -0.0146
     21 C21        18.8402  -13.0162   19.6340 C.3     1  <0>         0.0349
     22 C22        15.5958  -11.3535   19.8353 C.3     1  <0>         0.0171
     23 C23        17.7911  -11.9876   19.1010 C.3     1  <0>         0.0372
     24 C24        17.0159  -11.5519   20.3840 C.3     1  <0>         0.0923
     25 C25        17.1528  -12.8205   21.2628 C.2     1  <0>         0.2255
     26 C26        11.3092  -10.7366   23.6193 C.cat   1  <0>         0.2605
     27 N1         11.1248   -9.6445   24.4073 N.pl3   1  <0>        -0.3060
     28 N2         10.3926  -11.7052   23.7811 N.pl3   1  <0>        -0.2158
     29 N3         15.3676  -12.5222   18.9208 N.4     1  <0>         0.2436
     30 N4         18.3044  -13.4721   20.8857 N.am    1  <0>        -0.2932
     31 O1         16.5798  -12.9660   22.3738 O.2     1  <0>        -0.2750
     32 O2         21.9576  -13.5933   26.1663 O.3     1  <0>        -0.3151
     33 O3         23.0732  -14.0849   24.1127 O.3     1  <0>        -0.3150
     34 H1         21.9089  -11.8681   18.4475 H       1  <0>         0.0230
     35 H2         20.9313  -13.2516   17.8505 H       1  <0>         0.0230
     36 H3         20.2729  -11.5824   17.7632 H       1  <0>         0.0230
     37 H4         15.0643   -9.2233   21.4370 H       1  <0>         0.0622
     38 H5         13.5959  -13.1189   20.4407 H       1  <0>         0.0622
     39 H6         13.2820   -8.9445   23.0910 H       1  <0>         0.0626
     40 H7         11.7465  -12.8255   22.0624 H       1  <0>         0.0626
     41 H8         17.8925  -14.5077   24.2132 H       1  <0>         0.0622
     42 H9         19.1719  -14.1289   26.3227 H       1  <0>         0.0644
     43 H10        21.4738  -14.3889   21.8068 H       1  <0>         0.0647
     44 H11        14.7644  -11.6423   15.7771 H       1  <0>         0.0319
     45 H12        15.0998  -13.3637   16.0690 H       1  <0>         0.0319
     46 H13        17.3186  -12.3808   16.1574 H       1  <0>         0.0322
     47 H14        16.7501  -10.9311   16.9805 H       1  <0>         0.0322
     48 H15        13.8909  -11.3033   17.9591 H       1  <0>         0.0815
     49 H16        13.5796  -13.0552   17.8672 H       1  <0>         0.0815
     50 H17        23.9619  -13.1034   25.7330 H       1  <0>         0.0880
     51 H18        23.6367  -14.8539   25.9754 H       1  <0>         0.0880
     52 H19        20.8972  -13.1359   20.3381 H       1  <0>         0.0281
     53 H20        20.2382  -11.4648   20.2506 H       1  <0>         0.0281
     54 H21        19.3403  -15.3141   20.9239 H       1  <0>         0.0514
     55 H22        17.8276  -15.2461   21.9312 H       1  <0>         0.0514
     56 H23        16.9788  -13.8013   18.1536 H       1  <0>         0.0855
     57 H24        18.9783  -13.8464   18.9258 H       1  <0>         0.0505
     58 H25        15.5611  -10.3729   19.3380 H       1  <0>         0.0912
     59 H26        18.2722  -11.1860   18.5212 H       1  <0>         0.0383
     60 H27        17.3289  -10.6604   20.9473 H       1  <0>         0.0459
     61 H28        10.3529   -9.6107   25.0422 H       1  <0>         0.1477
     62 H29        11.7610   -8.8750   24.3522 H       1  <0>         0.1477
     63 H30         9.6511  -11.5866   24.4416 H       1  <0>         0.4359
     64 H31        10.4518  -12.5448   23.2412 H       1  <0>         0.4359
     65 H32        15.0132  -13.2878   19.4577 H       1  <0>         0.2043
@<TRIPOS>BOND
     1     1    13    1
     2     2     4   ar
     3     2    15   ar
     4     3     5   ar
     5     3    15   ar
     6     4    16   ar
     7     5    16   ar
     8     6     7   ar
     9     6    17   ar
    10     7    18   ar
    11     8    17   ar
    12     8    19   ar
    13     9    10    1
    14     9    11    1
    15    10    20    1
    16    11    29    1
    17    12    32    1
    18    12    33    1
    19    13    21    1
    20    14    17    1
    21    14    30    1
    22    15    22    1
    23    16    26    1
    24    18    19   ar
    25    18    32    1
    26    19    33    1
    27    20    23    1
    28    20    29    1
    29    21    23    1
    30    21    30    1
    31    22    24    1
    32    22    29    1
    33    23    24    1
    34    24    25    1
    35    25    30   am
    36    25    31    2
    37    26    27    1
    38    26    28    2
    39     1    34    1
    40     1    35    1
    41     1    36    1
    42     2    37    1
    43     3    38    1
    44     4    39    1
    45     5    40    1
    46     6    41    1
    47     7    42    1
    48     8    43    1
    49     9    44    1
    50     9    45    1
    51    10    46    1
    52    10    47    1
    53    11    48    1
    54    11    49    1
    55    12    50    1
    56    12    51    1
    57    13    52    1
    58    13    53    1
    59    14    54    1
    60    14    55    1
    61    20    56    1
    62    21    57    1
    63    22    58    1
    64    23    59    1
    65    24    60    1
    66    27    61    1
    67    27    62    1
    68    28    63    1
    69    28    64    1
    70    29    65    1
@<TRIPOS>SUBSTRUCTURE
     1 <0>         1 TEMP              0 ****  ****    0 ROOT

