
##########                                Name:      UIP_H5555_1YPE
##########                    Molecular_Weight:             448.565
##########                DOCK_Rotatable_Bonds:                   4
##########                       Formal_Charge:              2.0001
##########                     HBond_Acceptors:                   7
##########                        HBond_Donors:                   5
##########                         Heavy_Atoms:                  33
##########                            HA_RMSDs:               0.651
##########                            HA_RMSDh:               0.651
##########                            HA_RMSDm:               0.651
##########                          Grid_Score:         -188.842621
##########                     Grid_vdw_energy:          -54.110054
##########                      Grid_es_energy:         -134.732559
##########           Internal_energy_repulsive:           18.115877

@<TRIPOS>MOLECULE
UIP_H5555_1YPE
 65 70 1 0 0
SMALL
USER_CHARGES


@<TRIPOS>ATOM
      1 C1         20.8717  -11.9364   18.5355 C.3     1  <0>        -0.0636
      2 C2         14.2188   -9.9212   21.4030 C.ar    1  <0>        -0.0524
      3 C3         13.8417  -12.2931   21.2873 C.ar    1  <0>        -0.0524
      4 C4         13.1843   -9.7760   22.3086 C.ar    1  <0>        -0.0465
      5 C5         12.7744  -12.1583   22.1919 C.ar    1  <0>        -0.0465
      6 C6         18.9817  -14.4778   24.0335 C.ar    1  <0>        -0.0545
      7 C7         19.7091  -14.3378   25.2345 C.ar    1  <0>        -0.0287
      8 C8         20.9539  -14.9487   22.6696 C.ar    1  <0>        -0.0244
      9 C9         15.3241  -12.0565   16.5131 C.3     1  <0>        -0.0074
     10 C10        16.7537  -11.7925   16.9485 C.3     1  <0>        -0.0045
     11 C11        14.5032  -12.0502   17.8274 C.3     1  <0>        -0.0308
     12 C12        23.2569  -14.8970   25.4646 C.3     1  <0>         0.1600
     13 C13        20.3574  -12.5512   19.8439 C.3     1  <0>        -0.0366
     14 C14        18.6985  -14.8893   21.5174 C.3     1  <0>         0.0401
     15 C15        14.5795  -11.1769   20.8839 C.ar    1  <0>         0.0010
     16 C16        12.4387  -10.8983   22.7100 C.ar    1  <0>         0.0611
     17 C17        19.5599  -14.7865   22.7593 C.ar    1  <0>        -0.0275
     18 C18        21.0914  -14.4823   25.0970 C.ar    1  <0>         0.1090
     19 C19        21.6975  -14.7964   23.8634 C.ar    1  <0>         0.1093
     20 C20        16.8194  -12.6132   18.2551 C.3     1  <0>        -0.0146
     21 C21        18.9051  -13.0624   19.6575 C.3     1  <0>         0.0349
     22 C22        15.7159  -11.3024   19.9075 C.3     1  <0>         0.0171
     23 C23        17.9048  -11.9621   19.1766 C.3     1  <0>         0.0372
     24 C24        17.1150  -11.5896   20.4706 C.3     1  <0>         0.0923
     25 C25        17.1875  -12.9207   21.2601 C.2     1  <0>         0.2255
     26 C26        11.3598  -10.8026   23.6289 C.cat   1  <0>         0.2605
     27 N1         10.9590   -9.6349   24.1977 N.pl3   1  <0>        -0.3060
     28 N2         10.6487  -11.8798   24.0010 N.pl3   1  <0>        -0.2158
     29 N3         15.4693  -12.3953   18.9081 N.4     1  <0>         0.2436
     30 N4         18.3247  -13.5852   20.8622 N.am    1  <0>        -0.2932
     31 O1         16.5840  -13.1228   22.3458 O.2     1  <0>        -0.2750
     32 O2         22.0704  -14.2514   26.0445 O.3     1  <0>        -0.3151
     33 O3         23.0537  -15.1049   24.0423 O.3     1  <0>        -0.3150
     34 H1         21.9015  -11.5773   18.6784 H       1  <0>         0.0230
     35 H2         20.8558  -12.6977   17.7417 H       1  <0>         0.0230
     36 H3         20.2261  -11.0933   18.2482 H       1  <0>         0.0230
     37 H4         14.7652   -9.0454   21.0855 H       1  <0>         0.0622
     38 H5         14.0942  -13.2691   20.9000 H       1  <0>         0.0622
     39 H6         12.9490   -8.8005   22.7078 H       1  <0>         0.0626
     40 H7         12.2096  -13.0294   22.4897 H       1  <0>         0.0626
     41 H8         17.9111  -14.3425   24.0779 H       1  <0>         0.0622
     42 H9         19.2352  -14.1351   26.1836 H       1  <0>         0.0644
     43 H10        21.4355  -15.1792   21.7308 H       1  <0>         0.0647
     44 H11        14.9707  -11.2767   15.8224 H       1  <0>         0.0319
     45 H12        15.2398  -13.0252   15.9989 H       1  <0>         0.0319
     46 H13        17.4884  -12.1312   16.2032 H       1  <0>         0.0322
     47 H14        16.9508  -10.7232   17.1146 H       1  <0>         0.0322
     48 H15        14.0583  -11.0599   18.0041 H       1  <0>         0.0815
     49 H16        13.6892  -12.7888   17.7820 H       1  <0>         0.0815
     50 H17        24.1352  -14.2528   25.6181 H       1  <0>         0.0880
     51 H18        23.4219  -15.8672   25.9560 H       1  <0>         0.0880
     52 H19        21.0050  -13.3937   20.1282 H       1  <0>         0.0281
     53 H20        20.3746  -11.7874   20.6353 H       1  <0>         0.0281
     54 H21        19.2592  -15.4790   20.7773 H       1  <0>         0.0514
     55 H22        17.7633  -15.3903   21.8076 H       1  <0>         0.0514
     56 H23        17.0532  -13.6747   18.0864 H       1  <0>         0.0855
     57 H24        19.0312  -13.8455   18.8953 H       1  <0>         0.0505
     58 H25        15.7265  -10.2888   19.4802 H       1  <0>         0.0912
     59 H26        18.4265  -11.1396   18.6652 H       1  <0>         0.0383
     60 H27        17.4451  -10.7515   21.1019 H       1  <0>         0.0459
     61 H28        10.1902   -9.6282   24.8371 H       1  <0>         0.1477
     62 H29        11.4331   -8.7826   23.9769 H       1  <0>         0.1477
     63 H30         9.8927  -11.7807   24.6482 H       1  <0>         0.4359
     64 H31        10.8751  -12.7807   23.6307 H       1  <0>         0.4359
     65 H32        15.0763  -13.1834   19.3819 H       1  <0>         0.2043
@<TRIPOS>BOND
     1     1    13    1
     2     2     4   ar
     3     2    15   ar
     4     3     5   ar
     5     3    15   ar
     6     4    16   ar
     7     5    16   ar
     8     6     7   ar
     9     6    17   ar
    10     7    18   ar
    11     8    17   ar
    12     8    19   ar
    13     9    10    1
    14     9    11    1
    15    10    20    1
    16    11    29    1
    17    12    32    1
    18    12    33    1
    19    13    21    1
    20    14    17    1
    21    14    30    1
    22    15    22    1
    23    16    26    1
    24    18    19   ar
    25    18    32    1
    26    19    33    1
    27    20    23    1
    28    20    29    1
    29    21    23    1
    30    21    30    1
    31    22    24    1
    32    22    29    1
    33    23    24    1
    34    24    25    1
    35    25    30   am
    36    25    31    2
    37    26    27    1
    38    26    28    2
    39     1    34    1
    40     1    35    1
    41     1    36    1
    42     2    37    1
    43     3    38    1
    44     4    39    1
    45     5    40    1
    46     6    41    1
    47     7    42    1
    48     8    43    1
    49     9    44    1
    50     9    45    1
    51    10    46    1
    52    10    47    1
    53    11    48    1
    54    11    49    1
    55    12    50    1
    56    12    51    1
    57    13    52    1
    58    13    53    1
    59    14    54    1
    60    14    55    1
    61    20    56    1
    62    21    57    1
    63    22    58    1
    64    23    59    1
    65    24    60    1
    66    27    61    1
    67    27    62    1
    68    28    63    1
    69    28    64    1
    70    29    65    1
@<TRIPOS>SUBSTRUCTURE
     1 <0>         1 TEMP              0 ****  ****    0 ROOT

