
##########                                Name:      UIP_H5555_1YPE
##########                    Molecular_Weight:             448.565
##########                DOCK_Rotatable_Bonds:                   4
##########                       Formal_Charge:              2.0001
##########                     HBond_Acceptors:                   7
##########                        HBond_Donors:                   5
##########                         Heavy_Atoms:                  33
##########                            HA_RMSDs:               0.741
##########                            HA_RMSDh:               0.741
##########                            HA_RMSDm:               0.741
##########                          Grid_Score:         -191.976669
##########                     Grid_vdw_energy:          -58.284332
##########                      Grid_es_energy:         -133.692337
##########           Internal_energy_repulsive:           14.638460

@<TRIPOS>MOLECULE
UIP_H5555_1YPE
 65 70 1 0 0
SMALL
USER_CHARGES


@<TRIPOS>ATOM
      1 C1         20.8844  -12.3277   18.4943 C.3     1  <0>        -0.0636
      2 C2         14.0090   -9.9942   21.3758 C.ar    1  <0>        -0.0524
      3 C3         13.9402  -12.3837   21.6341 C.ar    1  <0>        -0.0524
      4 C4         12.9915   -9.8404   22.2989 C.ar    1  <0>        -0.0465
      5 C5         12.8915  -12.2444   22.5594 C.ar    1  <0>        -0.0465
      6 C6         19.5765  -13.8772   23.8200 C.ar    1  <0>        -0.0545
      7 C7         20.5134  -13.6818   24.8569 C.ar    1  <0>        -0.0287
      8 C8         20.9301  -15.5423   22.6509 C.ar    1  <0>        -0.0244
      9 C9         15.1641  -12.2244   16.6649 C.3     1  <0>        -0.0074
     10 C10        16.6004  -11.9342   17.0596 C.3     1  <0>        -0.0045
     11 C11        14.3752  -12.1998   17.9984 C.3     1  <0>        -0.0308
     12 C12        23.5593  -15.5775   25.1418 C.3     1  <0>         0.1600
     13 C13        20.2822  -12.5879   19.8814 C.3     1  <0>        -0.0366
     14 C14        18.6934  -14.9092   21.6439 C.3     1  <0>         0.0401
     15 C15        14.5145  -11.2604   21.0331 C.ar    1  <0>         0.0010
     16 C16        12.4101  -10.9710   22.8994 C.ar    1  <0>         0.0611
     17 C17        19.7452  -14.7889   22.7275 C.ar    1  <0>        -0.0275
     18 C18        21.6855  -14.4305   24.7299 C.ar    1  <0>         0.1090
     19 C19        21.8850  -15.3457   23.6761 C.ar    1  <0>         0.1093
     20 C20        16.7079  -12.7259   18.3812 C.3     1  <0>        -0.0146
     21 C21        18.8323  -13.1201   19.7414 C.3     1  <0>         0.0349
     22 C22        15.6284  -11.3933   20.0320 C.3     1  <0>         0.0171
     23 C23        17.8070  -12.0423   19.2620 C.3     1  <0>         0.0372
     24 C24        17.0443  -11.6517   20.5667 C.3     1  <0>         0.0923
     25 C25        17.1523  -12.9646   21.3821 C.2     1  <0>         0.2255
     26 C26        11.3554  -10.8691   23.8452 C.cat   1  <0>         0.2605
     27 N1         10.8231   -9.6864   24.2522 N.pl3   1  <0>        -0.3060
     28 N2         10.8016  -11.9557   24.4082 N.pl3   1  <0>        -0.2158
     29 N3         15.3713  -12.5102   19.0622 N.4     1  <0>         0.2436
     30 N4         18.2877  -13.6239   20.9707 N.am    1  <0>        -0.2932
     31 O1         16.5777  -13.1507   22.4863 O.2     1  <0>        -0.2750
     32 O2         22.8374  -14.3449   25.4883 O.3     1  <0>        -0.3151
     33 O3         23.0304  -16.1218   23.9043 O.3     1  <0>        -0.3150
     34 H1         21.9118  -11.9508   18.6047 H       1  <0>         0.0230
     35 H2         20.8978  -13.2652   17.9188 H       1  <0>         0.0230
     36 H3         20.2750  -11.5807   17.9645 H       1  <0>         0.0230
     37 H4         14.4274   -9.1170   20.9047 H       1  <0>         0.0622
     38 H5         14.3060  -13.3689   21.3851 H       1  <0>         0.0622
     39 H6         12.6431   -8.8517   22.5589 H       1  <0>         0.0626
     40 H7         12.4537  -13.1223   23.0112 H       1  <0>         0.0626
     41 H8         18.6660  -13.2973   23.8521 H       1  <0>         0.0622
     42 H9         20.3383  -13.0077   25.6823 H       1  <0>         0.0644
     43 H10        21.1036  -16.2401   21.8450 H       1  <0>         0.0647
     44 H11        14.7844  -11.4638   15.9667 H       1  <0>         0.0319
     45 H12        15.0795  -13.2049   16.1734 H       1  <0>         0.0319
     46 H13        17.3210  -12.2800   16.3038 H       1  <0>         0.0322
     47 H14        16.7882  -10.8593   17.1982 H       1  <0>         0.0322
     48 H15        13.9224  -11.2113   18.1650 H       1  <0>         0.0815
     49 H16        13.5696  -12.9488   17.9884 H       1  <0>         0.0815
     50 H17        24.6283  -15.3516   25.0144 H       1  <0>         0.0880
     51 H18        23.4328  -16.3143   25.9487 H       1  <0>         0.0880
     52 H19        20.8939  -13.3350   20.4083 H       1  <0>         0.0281
     53 H20        20.2704  -11.6486   20.4539 H       1  <0>         0.0281
     54 H21        19.0985  -15.5730   20.8660 H       1  <0>         0.0514
     55 H22        17.7916  -15.3350   22.1081 H       1  <0>         0.0514
     56 H23        16.9507  -13.7879   18.2293 H       1  <0>         0.0855
     57 H24        18.9496  -13.9178   18.9931 H       1  <0>         0.0505
     58 H25        15.6161  -10.3891   19.5833 H       1  <0>         0.0912
     59 H26        18.3060  -11.2249   18.7207 H       1  <0>         0.0383
     60 H27        17.3790  -10.7964   21.1720 H       1  <0>         0.0459
     61 H28        10.0790   -9.6765   24.9201 H       1  <0>         0.1477
     62 H29        11.1757   -8.8263   23.8836 H       1  <0>         0.1477
     63 H30        10.0585  -11.8524   25.0696 H       1  <0>         0.4359
     64 H31        11.1322  -12.8678   24.1661 H       1  <0>         0.4359
     65 H32        14.9997  -13.2926   19.5620 H       1  <0>         0.2043
@<TRIPOS>BOND
     1     1    13    1
     2     2     4   ar
     3     2    15   ar
     4     3     5   ar
     5     3    15   ar
     6     4    16   ar
     7     5    16   ar
     8     6     7   ar
     9     6    17   ar
    10     7    18   ar
    11     8    17   ar
    12     8    19   ar
    13     9    10    1
    14     9    11    1
    15    10    20    1
    16    11    29    1
    17    12    32    1
    18    12    33    1
    19    13    21    1
    20    14    17    1
    21    14    30    1
    22    15    22    1
    23    16    26    1
    24    18    19   ar
    25    18    32    1
    26    19    33    1
    27    20    23    1
    28    20    29    1
    29    21    23    1
    30    21    30    1
    31    22    24    1
    32    22    29    1
    33    23    24    1
    34    24    25    1
    35    25    30   am
    36    25    31    2
    37    26    27    1
    38    26    28    2
    39     1    34    1
    40     1    35    1
    41     1    36    1
    42     2    37    1
    43     3    38    1
    44     4    39    1
    45     5    40    1
    46     6    41    1
    47     7    42    1
    48     8    43    1
    49     9    44    1
    50     9    45    1
    51    10    46    1
    52    10    47    1
    53    11    48    1
    54    11    49    1
    55    12    50    1
    56    12    51    1
    57    13    52    1
    58    13    53    1
    59    14    54    1
    60    14    55    1
    61    20    56    1
    62    21    57    1
    63    22    58    1
    64    23    59    1
    65    24    60    1
    66    27    61    1
    67    27    62    1
    68    28    63    1
    69    28    64    1
    70    29    65    1
@<TRIPOS>SUBSTRUCTURE
     1 <0>         1 TEMP              0 ****  ****    0 ROOT

