
##########                                Name:      UIP_H5555_1YPE
##########                    Molecular_Weight:             448.565
##########                DOCK_Rotatable_Bonds:                   4
##########                       Formal_Charge:              2.0001
##########                     HBond_Acceptors:                   7
##########                        HBond_Donors:                   5
##########                         Heavy_Atoms:                  33
##########                            HA_RMSDs:               0.424
##########                            HA_RMSDh:               0.424
##########                            HA_RMSDm:               0.424
##########                          Grid_Score:         -195.252899
##########                     Grid_vdw_energy:          -60.049660
##########                      Grid_es_energy:         -135.203232
##########           Internal_energy_repulsive:           12.923432

@<TRIPOS>MOLECULE
UIP_H5555_1YPE
 65 70 1 0 0
SMALL
USER_CHARGES


@<TRIPOS>ATOM
      1 C1         20.8503  -12.2703   18.3627 C.3     1  <0>        -0.0636
      2 C2         14.1433   -9.8343   21.4071 C.ar    1  <0>        -0.0524
      3 C3         13.6653  -12.1873   21.2771 C.ar    1  <0>        -0.0524
      4 C4         13.1323   -9.6550   22.3328 C.ar    1  <0>        -0.0465
      5 C5         12.6210  -12.0170   22.2023 C.ar    1  <0>        -0.0465
      6 C6         19.2987  -13.8056   23.9783 C.ar    1  <0>        -0.0545
      7 C7         20.1681  -13.5570   25.0616 C.ar    1  <0>        -0.0287
      8 C8         21.0145  -14.8612   22.5950 C.ar    1  <0>        -0.0244
      9 C9         15.0911  -12.2600   16.5503 C.3     1  <0>        -0.0074
     10 C10        16.5241  -11.9292   16.9246 C.3     1  <0>        -0.0045
     11 C11        14.3066  -12.1840   17.8844 C.3     1  <0>        -0.0308
     12 C12        23.5963  -14.6505   25.1265 C.3     1  <0>         0.1600
     13 C13        20.2254  -12.3909   19.7589 C.3     1  <0>        -0.0366
     14 C14        18.6790  -14.6497   21.6366 C.3     1  <0>         0.0401
     15 C15        14.4417  -11.0989   20.8703 C.ar    1  <0>         0.0010
     16 C16        12.3477  -10.7491   22.7378 C.ar    1  <0>         0.0611
     17 C17        19.6790  -14.4517   22.7572 C.ar    1  <0>        -0.0275
     18 C18        21.4895  -13.9568   24.8501 C.ar    1  <0>         0.1090
     19 C19        21.9008  -14.6050   23.6675 C.ar    1  <0>         0.1093
     20 C20        16.6485  -12.6552   18.2820 C.3     1  <0>        -0.0146
     21 C21        18.7834  -12.9515   19.6504 C.3     1  <0>         0.0349
     22 C22        15.5541  -11.2623   19.8720 C.3     1  <0>         0.0171
     23 C23        17.7399  -11.9137   19.1246 C.3     1  <0>         0.0372
     24 C24        16.9756  -11.4730   20.4124 C.3     1  <0>         0.0923
     25 C25        17.1070  -12.7437   21.2890 C.2     1  <0>         0.2255
     26 C26        11.2904  -10.6175   23.6772 C.cat   1  <0>         0.2605
     27 N1         10.9492   -9.4396   24.2637 N.pl3   1  <0>        -0.3060
     28 N2         10.5417  -11.6676   24.0526 N.pl3   1  <0>        -0.2158
     29 N3         15.3111  -12.4279   18.9576 N.4     1  <0>         0.2436
     30 N4         18.2510  -13.4044   20.9046 N.am    1  <0>        -0.2932
     31 O1         16.5391  -12.8857   22.4031 O.2     1  <0>        -0.2750
     32 O2         22.5913  -13.7128   25.6475 O.3     1  <0>        -0.3151
     33 O3         23.2073  -15.0965   23.8010 O.3     1  <0>        -0.3150
     34 H1         21.8719  -11.8721   18.4507 H       1  <0>         0.0230
     35 H2         20.8832  -13.2625   17.8889 H       1  <0>         0.0230
     36 H3         20.2435  -11.5898   17.7472 H       1  <0>         0.0230
     37 H4         14.7200   -8.9791   21.0874 H       1  <0>         0.0622
     38 H5         13.8698  -13.1692   20.8766 H       1  <0>         0.0622
     39 H6         12.9451   -8.6744   22.7448 H       1  <0>         0.0626
     40 H7         12.0258  -12.8666   22.5027 H       1  <0>         0.0626
     41 H8         18.2719  -13.4855   24.0767 H       1  <0>         0.0622
     42 H9         19.8384  -13.0947   25.9804 H       1  <0>         0.0644
     43 H10        21.3488  -15.3496   21.6916 H       1  <0>         0.0647
     44 H11        14.6973  -11.5395   15.8183 H       1  <0>         0.0319
     45 H12        15.0201  -13.2639   16.1064 H       1  <0>         0.0319
     46 H13        17.2474  -12.2996   16.1832 H       1  <0>         0.0322
     47 H14        16.6956  -10.8462   17.0111 H       1  <0>         0.0322
     48 H15        13.8390  -11.1957   18.0056 H       1  <0>         0.0815
     49 H16        13.5127  -12.9449   17.9135 H       1  <0>         0.0815
     50 H17        24.5723  -14.1464   25.0708 H       1  <0>         0.0880
     51 H18        23.6686  -15.5189   25.7978 H       1  <0>         0.0880
     52 H19        20.8344  -13.0719   20.3716 H       1  <0>         0.0281
     53 H20        20.1941  -11.3972   20.2296 H       1  <0>         0.0281
     54 H21        19.1423  -15.3208   20.8985 H       1  <0>         0.0514
     55 H22        17.7763  -15.0971   22.0780 H       1  <0>         0.0514
     56 H23        16.9072  -13.7195   18.1798 H       1  <0>         0.0855
     57 H24        18.9106  -13.7820   18.9405 H       1  <0>         0.0505
     58 H25        15.5247  -10.2808   19.3760 H       1  <0>         0.0912
     59 H26        18.2242  -11.1154   18.5429 H       1  <0>         0.0383
     60 H27        17.2991  -10.5848   20.9748 H       1  <0>         0.0459
     61 H28        10.1929   -9.4071   24.9171 H       1  <0>         0.1477
     62 H29        11.4544   -8.6057   24.0418 H       1  <0>         0.1477
     63 H30         9.8024  -11.5435   24.7145 H       1  <0>         0.4359
     64 H31        10.7236  -12.5735   23.6703 H       1  <0>         0.4359
     65 H32        14.9534  -13.1912   19.4956 H       1  <0>         0.2043
@<TRIPOS>BOND
     1     1    13    1
     2     2     4   ar
     3     2    15   ar
     4     3     5   ar
     5     3    15   ar
     6     4    16   ar
     7     5    16   ar
     8     6     7   ar
     9     6    17   ar
    10     7    18   ar
    11     8    17   ar
    12     8    19   ar
    13     9    10    1
    14     9    11    1
    15    10    20    1
    16    11    29    1
    17    12    32    1
    18    12    33    1
    19    13    21    1
    20    14    17    1
    21    14    30    1
    22    15    22    1
    23    16    26    1
    24    18    19   ar
    25    18    32    1
    26    19    33    1
    27    20    23    1
    28    20    29    1
    29    21    23    1
    30    21    30    1
    31    22    24    1
    32    22    29    1
    33    23    24    1
    34    24    25    1
    35    25    30   am
    36    25    31    2
    37    26    27    1
    38    26    28    2
    39     1    34    1
    40     1    35    1
    41     1    36    1
    42     2    37    1
    43     3    38    1
    44     4    39    1
    45     5    40    1
    46     6    41    1
    47     7    42    1
    48     8    43    1
    49     9    44    1
    50     9    45    1
    51    10    46    1
    52    10    47    1
    53    11    48    1
    54    11    49    1
    55    12    50    1
    56    12    51    1
    57    13    52    1
    58    13    53    1
    59    14    54    1
    60    14    55    1
    61    20    56    1
    62    21    57    1
    63    22    58    1
    64    23    59    1
    65    24    60    1
    66    27    61    1
    67    27    62    1
    68    28    63    1
    69    28    64    1
    70    29    65    1
@<TRIPOS>SUBSTRUCTURE
     1 <0>         1 TEMP              0 ****  ****    0 ROOT

