
##########                                Name:      UIP_H5555_1YPE
##########                    Molecular_Weight:             448.565
##########                DOCK_Rotatable_Bonds:                   4
##########                       Formal_Charge:              2.0001
##########                     HBond_Acceptors:                   7
##########                        HBond_Donors:                   5
##########                         Heavy_Atoms:                  33
##########                            HA_RMSDs:               0.517
##########                            HA_RMSDh:               0.517
##########                            HA_RMSDm:               0.517
##########                          Grid_Score:         -192.568085
##########                     Grid_vdw_energy:          -54.949833
##########                      Grid_es_energy:         -137.618256
##########           Internal_energy_repulsive:           13.319172

@<TRIPOS>MOLECULE
UIP_H5555_1YPE
 65 70 1 0 0
SMALL
USER_CHARGES


@<TRIPOS>ATOM
      1 C1         20.7068  -12.3148   18.4130 C.3     1  <0>        -0.0636
      2 C2         14.0575   -9.9367   21.6030 C.ar    1  <0>        -0.0524
      3 C3         13.4438  -12.2339   21.2457 C.ar    1  <0>        -0.0524
      4 C4         13.0475   -9.7861   22.5349 C.ar    1  <0>        -0.0465
      5 C5         12.4000  -12.0903   22.1761 C.ar    1  <0>        -0.0465
      6 C6         18.9875  -14.3269   24.0748 C.ar    1  <0>        -0.0545
      7 C7         19.8111  -14.1414   25.2055 C.ar    1  <0>        -0.0287
      8 C8         20.8525  -14.6872   22.5373 C.ar    1  <0>        -0.0244
      9 C9         14.9373  -12.1686   16.5917 C.3     1  <0>        -0.0074
     10 C10        16.3716  -11.8601   16.9798 C.3     1  <0>        -0.0045
     11 C11        14.1510  -12.1360   17.9266 C.3     1  <0>        -0.0308
     12 C12        23.3915  -14.4943   25.1131 C.3     1  <0>         0.1600
     13 C13        20.0655  -12.4458   19.8008 C.3     1  <0>        -0.0366
     14 C14        18.5026  -14.7615   21.5936 C.3     1  <0>         0.0401
     15 C15        14.2877  -11.1601   20.9498 C.ar    1  <0>         0.0010
     16 C16        12.1951  -10.8649   22.8283 C.ar    1  <0>         0.0611
     17 C17        19.4653  -14.6055   22.7529 C.ar    1  <0>        -0.0275
     18 C18        21.1814  -14.2064   24.9434 C.ar    1  <0>         0.1090
     19 C19        21.6908  -14.4888   23.6594 C.ar    1  <0>         0.1093
     20 C20        16.4894  -12.6353   18.3102 C.3     1  <0>        -0.0146
     21 C21        18.6203  -12.9935   19.6701 C.3     1  <0>         0.0349
     22 C22        15.4008  -11.2940   19.9479 C.3     1  <0>         0.0171
     23 C23        17.5838  -11.9311   19.1806 C.3     1  <0>         0.0372
     24 C24        16.8201  -11.5327   20.4824 C.3     1  <0>         0.0923
     25 C25        16.9425  -12.8349   21.3128 C.2     1  <0>         0.2255
     26 C26        11.1360  -10.7602   23.7690 C.cat   1  <0>         0.2605
     27 N1         10.8573   -9.6251   24.4630 N.pl3   1  <0>        -0.3060
     28 N2         10.3223  -11.7947   24.0375 N.pl3   1  <0>        -0.2158
     29 N3         15.1523  -12.4245   18.9917 N.4     1  <0>         0.2436
     30 N4         18.0832  -13.4881   20.9064 N.am    1  <0>        -0.2932
     31 O1         16.3720  -13.0136   22.4202 O.2     1  <0>        -0.2750
     32 O2         22.2270  -13.9166   25.7991 O.3     1  <0>        -0.3151
     33 O3         23.0732  -14.7179   23.7145 O.3     1  <0>        -0.3150
     34 H1         21.7305  -11.9260   18.5168 H       1  <0>         0.0230
     35 H2         20.7371  -13.3020   17.9286 H       1  <0>         0.0230
     36 H3         20.1124  -11.6227   17.7984 H       1  <0>         0.0230
     37 H4         14.6874   -9.0909   21.3702 H       1  <0>         0.0622
     38 H5         13.5951  -13.1838   20.7546 H       1  <0>         0.0622
     39 H6         12.9133   -8.8396   23.0374 H       1  <0>         0.0626
     40 H7         11.7522  -12.9276   22.3900 H       1  <0>         0.0626
     41 H8         17.9193  -14.2534   24.2159 H       1  <0>         0.0622
     42 H9         19.4139  -13.9636   26.1939 H       1  <0>         0.0644
     43 H10        21.2599  -14.8924   21.5583 H       1  <0>         0.0647
     44 H11        14.5489  -11.4198   15.8856 H       1  <0>         0.0319
     45 H12        14.8610  -13.1554   16.1118 H       1  <0>         0.0319
     46 H13        17.0939  -12.2078   16.2265 H       1  <0>         0.0322
     47 H14        16.5493  -10.7819   17.1055 H       1  <0>         0.0322
     48 H15        13.6891  -11.1500   18.0827 H       1  <0>         0.0815
     49 H16        13.3526  -12.8927   17.9271 H       1  <0>         0.0815
     50 H17        24.2414  -13.8001   25.1881 H       1  <0>         0.0880
     51 H18        23.6560  -15.4519   25.5854 H       1  <0>         0.0880
     52 H19        20.6622  -13.1384   20.4125 H       1  <0>         0.0281
     53 H20        20.0368  -11.4571   20.2822 H       1  <0>         0.0281
     54 H21        18.9961  -15.3932   20.8404 H       1  <0>         0.0514
     55 H22        17.5919  -15.2378   21.9855 H       1  <0>         0.0514
     56 H23        16.7420  -13.6967   18.1701 H       1  <0>         0.0855
     57 H24        18.7438  -13.7986   18.9309 H       1  <0>         0.0505
     58 H25        15.3779  -10.2952   19.4875 H       1  <0>         0.0912
     59 H26        18.0739  -11.1153   18.6288 H       1  <0>         0.0383
     60 H27        17.1480  -10.6672   21.0769 H       1  <0>         0.0459
     61 H28        10.0963   -9.6097   25.1116 H       1  <0>         0.1477
     62 H29        11.4134   -8.8056   24.3251 H       1  <0>         0.1477
     63 H30         9.5835  -11.6901   24.7033 H       1  <0>         0.4359
     64 H31        10.4553  -12.6695   23.5716 H       1  <0>         0.4359
     65 H32        14.7892  -13.2045   19.5013 H       1  <0>         0.2043
@<TRIPOS>BOND
     1     1    13    1
     2     2     4   ar
     3     2    15   ar
     4     3     5   ar
     5     3    15   ar
     6     4    16   ar
     7     5    16   ar
     8     6     7   ar
     9     6    17   ar
    10     7    18   ar
    11     8    17   ar
    12     8    19   ar
    13     9    10    1
    14     9    11    1
    15    10    20    1
    16    11    29    1
    17    12    32    1
    18    12    33    1
    19    13    21    1
    20    14    17    1
    21    14    30    1
    22    15    22    1
    23    16    26    1
    24    18    19   ar
    25    18    32    1
    26    19    33    1
    27    20    23    1
    28    20    29    1
    29    21    23    1
    30    21    30    1
    31    22    24    1
    32    22    29    1
    33    23    24    1
    34    24    25    1
    35    25    30   am
    36    25    31    2
    37    26    27    1
    38    26    28    2
    39     1    34    1
    40     1    35    1
    41     1    36    1
    42     2    37    1
    43     3    38    1
    44     4    39    1
    45     5    40    1
    46     6    41    1
    47     7    42    1
    48     8    43    1
    49     9    44    1
    50     9    45    1
    51    10    46    1
    52    10    47    1
    53    11    48    1
    54    11    49    1
    55    12    50    1
    56    12    51    1
    57    13    52    1
    58    13    53    1
    59    14    54    1
    60    14    55    1
    61    20    56    1
    62    21    57    1
    63    22    58    1
    64    23    59    1
    65    24    60    1
    66    27    61    1
    67    27    62    1
    68    28    63    1
    69    28    64    1
    70    29    65    1
@<TRIPOS>SUBSTRUCTURE
     1 <0>         1 TEMP              0 ****  ****    0 ROOT

