
##########                                Name:      UIP_H5555_1YPE
##########                    Molecular_Weight:             448.565
##########                DOCK_Rotatable_Bonds:                   4
##########                       Formal_Charge:              2.0001
##########                     HBond_Acceptors:                   7
##########                        HBond_Donors:                   5
##########                         Heavy_Atoms:                  33
##########                            HA_RMSDs:               0.310
##########                            HA_RMSDh:               0.310
##########                            HA_RMSDm:               0.310
##########                          Grid_Score:         -190.275177
##########                     Grid_vdw_energy:          -56.115604
##########                      Grid_es_energy:         -134.159576
##########           Internal_energy_repulsive:           14.161511

@<TRIPOS>MOLECULE
UIP_H5555_1YPE
 65 70 1 0 0
SMALL
USER_CHARGES


@<TRIPOS>ATOM
      1 C1         20.8202  -11.9270   18.1434 C.3     1  <0>        -0.0636
      2 C2         14.2352   -9.8109   21.3291 C.ar    1  <0>        -0.0524
      3 C3         13.7215  -12.1547   21.1724 C.ar    1  <0>        -0.0524
      4 C4         13.2417   -9.6311   22.2735 C.ar    1  <0>        -0.0465
      5 C5         12.6946  -11.9834   22.1167 C.ar    1  <0>        -0.0465
      6 C6         19.2799  -13.7541   24.0324 C.ar    1  <0>        -0.0545
      7 C7         20.0542  -13.4342   25.1679 C.ar    1  <0>        -0.0287
      8 C8         21.2117  -14.1392   22.5863 C.ar    1  <0>        -0.0244
      9 C9         15.0996  -12.4000   16.4894 C.3     1  <0>        -0.0074
     10 C10        16.5265  -11.9963   16.8118 C.3     1  <0>        -0.0045
     11 C11        14.3447  -12.2948   17.8385 C.3     1  <0>        -0.0308
     12 C12        23.6489  -13.6040   25.2117 C.3     1  <0>         0.1600
     13 C13        20.3101  -12.1829   19.5677 C.3     1  <0>        -0.0366
     14 C14        18.9020  -14.4139   21.5825 C.3     1  <0>         0.0401
     15 C15        14.5069  -11.0715   20.7691 C.ar    1  <0>         0.0010
     16 C16        12.4480  -10.7199   22.6750 C.ar    1  <0>         0.0611
     17 C17        19.8157  -14.1136   22.7530 C.ar    1  <0>        -0.0275
     18 C18        21.4341  -13.4478   24.9530 C.ar    1  <0>         0.1090
     19 C19        22.0004  -13.8063   23.7126 C.ar    1  <0>         0.1093
     20 C20        16.7126  -12.6548   18.1963 C.3     1  <0>        -0.0146
     21 C21        18.8899  -12.8043   19.5212 C.3     1  <0>         0.0349
     22 C22        15.6009  -11.2357   19.7508 C.3     1  <0>         0.0171
     23 C23        17.7928  -11.8334   18.9770 C.3     1  <0>         0.0372
     24 C24        17.0423  -11.3655   20.2633 C.3     1  <0>         0.0923
     25 C25        17.2460  -12.5892   21.1915 C.2     1  <0>         0.2255
     26 C26        11.4079  -10.5873   23.6331 C.cat   1  <0>         0.2605
     27 N1         11.0929   -9.4136   24.2421 N.pl3   1  <0>        -0.3060
     28 N2         10.6502  -11.6322   24.0051 N.pl3   1  <0>        -0.2158
     29 N3         15.3836  -12.4502   18.8953 N.4     1  <0>         0.2436
     30 N4         18.4064  -13.2208   20.8075 N.am    1  <0>        -0.2932
     31 O1         16.7112  -12.7030   22.3251 O.2     1  <0>        -0.2750
     32 O2         22.4342  -13.0347   25.8125 O.3     1  <0>        -0.3151
     33 O3         23.3899  -13.9569   23.8276 O.3     1  <0>        -0.3150
     34 H1         21.8272  -11.4866   18.1876 H       1  <0>         0.0230
     35 H2         20.8600  -12.8780   17.5920 H       1  <0>         0.0230
     36 H3         20.1389  -11.2330   17.6293 H       1  <0>         0.0230
     37 H4         14.8190   -8.9592   21.0127 H       1  <0>         0.0622
     38 H5         13.9055  -13.1333   20.7544 H       1  <0>         0.0622
     39 H6         13.0753   -8.6542   22.7028 H       1  <0>         0.0626
     40 H7         12.0920  -12.8289   22.4142 H       1  <0>         0.0626
     41 H8         18.2052  -13.7259   24.1352 H       1  <0>         0.0622
     42 H9         19.6152  -13.1979   26.1260 H       1  <0>         0.0644
     43 H10        21.6620  -14.4015   21.6403 H       1  <0>         0.0647
     44 H11        14.6594  -11.7294   15.7366 H       1  <0>         0.0319
     45 H12        15.0588  -13.4250   16.0923 H       1  <0>         0.0319
     46 H13        17.2463  -12.3709   16.0692 H       1  <0>         0.0322
     47 H14        16.6559  -10.9045   16.8460 H       1  <0>         0.0322
     48 H15        13.8404  -11.3213   17.9280 H       1  <0>         0.0815
     49 H16        13.5833  -13.0844   17.9216 H       1  <0>         0.0815
     50 H17        24.4599  -12.8621   25.2541 H       1  <0>         0.0880
     51 H18        23.9448  -14.5047   25.7694 H       1  <0>         0.0880
     52 H19        20.9935  -12.8770   20.0788 H       1  <0>         0.0281
     53 H20        20.2716  -11.2301   20.1162 H       1  <0>         0.0281
     54 H21        19.4642  -15.0491   20.8823 H       1  <0>         0.0514
     55 H22        18.0194  -14.9356   21.9809 H       1  <0>         0.0514
     56 H23        17.0118  -13.7115   18.1346 H       1  <0>         0.0855
     57 H24        19.0337  -13.6604   18.8457 H       1  <0>         0.0505
     58 H25        15.5198  -10.2796   19.2128 H       1  <0>         0.0912
     59 H26        18.2303  -11.0437   18.3484 H       1  <0>         0.0383
     60 H27        17.3428  -10.4407   20.7775 H       1  <0>         0.0459
     61 H28        10.3476   -9.3801   24.9081 H       1  <0>         0.1477
     62 H29        11.6065   -8.5837   24.0244 H       1  <0>         0.1477
     63 H30         9.9233  -11.5075   24.6806 H       1  <0>         0.4359
     64 H31        10.8129  -12.5348   23.6067 H       1  <0>         0.4359
     65 H32        15.0702  -13.2019   19.4756 H       1  <0>         0.2043
@<TRIPOS>BOND
     1     1    13    1
     2     2     4   ar
     3     2    15   ar
     4     3     5   ar
     5     3    15   ar
     6     4    16   ar
     7     5    16   ar
     8     6     7   ar
     9     6    17   ar
    10     7    18   ar
    11     8    17   ar
    12     8    19   ar
    13     9    10    1
    14     9    11    1
    15    10    20    1
    16    11    29    1
    17    12    32    1
    18    12    33    1
    19    13    21    1
    20    14    17    1
    21    14    30    1
    22    15    22    1
    23    16    26    1
    24    18    19   ar
    25    18    32    1
    26    19    33    1
    27    20    23    1
    28    20    29    1
    29    21    23    1
    30    21    30    1
    31    22    24    1
    32    22    29    1
    33    23    24    1
    34    24    25    1
    35    25    30   am
    36    25    31    2
    37    26    27    1
    38    26    28    2
    39     1    34    1
    40     1    35    1
    41     1    36    1
    42     2    37    1
    43     3    38    1
    44     4    39    1
    45     5    40    1
    46     6    41    1
    47     7    42    1
    48     8    43    1
    49     9    44    1
    50     9    45    1
    51    10    46    1
    52    10    47    1
    53    11    48    1
    54    11    49    1
    55    12    50    1
    56    12    51    1
    57    13    52    1
    58    13    53    1
    59    14    54    1
    60    14    55    1
    61    20    56    1
    62    21    57    1
    63    22    58    1
    64    23    59    1
    65    24    60    1
    66    27    61    1
    67    27    62    1
    68    28    63    1
    69    28    64    1
    70    29    65    1
@<TRIPOS>SUBSTRUCTURE
     1 <0>         1 TEMP              0 ****  ****    0 ROOT

