
##########                                Name:      UIP_H5555_1YPE
##########                    Molecular_Weight:             448.565
##########                DOCK_Rotatable_Bonds:                   4
##########                       Formal_Charge:              2.0001
##########                     HBond_Acceptors:                   7
##########                        HBond_Donors:                   5
##########                         Heavy_Atoms:                  33
##########                            HA_RMSDs:               0.309
##########                            HA_RMSDh:               0.309
##########                            HA_RMSDm:               0.309
##########                          Grid_Score:         -186.849838
##########                     Grid_vdw_energy:          -52.442871
##########                      Grid_es_energy:         -134.406967
##########           Internal_energy_repulsive:           18.579084

@<TRIPOS>MOLECULE
UIP_H5555_1YPE
 65 70 1 0 0
SMALL
USER_CHARGES


@<TRIPOS>ATOM
      1 C1         21.0154  -12.0288   18.6958 C.3     1  <0>        -0.0636
      2 C2         14.0941   -9.8469   21.3023 C.ar    1  <0>        -0.0524
      3 C3         13.7270  -12.2231   21.2872 C.ar    1  <0>        -0.0524
      4 C4         13.0338   -9.6638   22.1703 C.ar    1  <0>        -0.0465
      5 C5         12.6339  -12.0506   22.1537 C.ar    1  <0>        -0.0465
      6 C6         19.8290  -13.6876   24.3198 C.ar    1  <0>        -0.0545
      7 C7         20.8619  -13.3963   25.2360 C.ar    1  <0>        -0.0287
      8 C8         21.3487  -14.2162   22.4806 C.ar    1  <0>        -0.0244
      9 C9         15.3820  -12.5362   16.6565 C.3     1  <0>        -0.0074
     10 C10        16.7762  -12.0990   17.0665 C.3     1  <0>        -0.0045
     11 C11        14.5341  -12.4151   17.9479 C.3     1  <0>        -0.0308
     12 C12        24.3536  -13.7867   24.4565 C.3     1  <0>         0.1600
     13 C13        20.3633  -12.1539   20.0791 C.3     1  <0>        -0.0366
     14 C14        18.8576  -14.3653   22.0443 C.3     1  <0>         0.0401
     15 C15        14.4730  -11.1240   20.8531 C.ar    1  <0>         0.0010
     16 C16        12.2800  -10.7691   22.6024 C.ar    1  <0>         0.0611
     17 C17        20.0329  -14.1016   22.9632 C.ar    1  <0>        -0.0275
     18 C18        22.1516  -13.4988   24.7098 C.ar    1  <0>         0.1090
     19 C19        22.3942  -13.9130   23.3841 C.ar    1  <0>         0.1093
     20 C20        16.8775  -12.7229   18.4756 C.3     1  <0>        -0.0146
     21 C21        18.9604  -12.8025   19.9499 C.3     1  <0>         0.0349
     22 C22        15.6372  -11.2905   19.9164 C.3     1  <0>         0.0171
     23 C23        17.8872  -11.8644   19.3091 C.3     1  <0>         0.0372
     24 C24        17.0418  -11.3821   20.5295 C.3     1  <0>         0.0923
     25 C25        17.2018  -12.5808   21.4980 C.2     1  <0>         0.2255
     26 C26        11.1750  -10.6349   23.4847 C.cat   1  <0>         0.2605
     27 N1         10.7549   -9.4435   23.9865 N.pl3   1  <0>        -0.3060
     28 N2         10.4565  -11.6964   23.8865 N.pl3   1  <0>        -0.2158
     29 N3         15.5002  -12.5276   19.0768 N.4     1  <0>         0.2436
     30 N4         18.3965  -13.1991   21.2094 N.am    1  <0>        -0.2932
     31 O1         16.5920  -12.6793   22.5945 O.2     1  <0>        -0.2750
     32 O2         23.3450  -13.1332   25.3027 O.3     1  <0>        -0.3151
     33 O3         23.7618  -14.1470   23.1808 O.3     1  <0>        -0.3150
     34 H1         22.0089  -11.5681   18.7986 H       1  <0>         0.0230
     35 H2         21.1194  -13.0281   18.2479 H       1  <0>         0.0230
     36 H3         20.3852  -11.4006   18.0491 H       1  <0>         0.0230
     37 H4         14.6470   -8.9847   20.9597 H       1  <0>         0.0622
     38 H5         13.9932  -13.2152   20.9535 H       1  <0>         0.0622
     39 H6         12.7844   -8.6716   22.5163 H       1  <0>         0.0626
     40 H7         12.0632  -12.9091   22.4759 H       1  <0>         0.0626
     41 H8         18.8106  -13.5914   24.6662 H       1  <0>         0.0622
     42 H9         20.6707  -13.1167   26.2615 H       1  <0>         0.0644
     43 H10        21.5521  -14.5222   21.4649 H       1  <0>         0.0647
     44 H11        14.9835  -11.8909   15.8598 H       1  <0>         0.0319
     45 H12        15.3861  -13.5704   16.2817 H       1  <0>         0.0319
     46 H13        17.5518  -12.4766   16.3840 H       1  <0>         0.0322
     47 H14        16.8843  -11.0045   17.0838 H       1  <0>         0.0322
     48 H15        14.0084  -11.4494   17.9796 H       1  <0>         0.0815
     49 H16        13.7823  -13.2166   17.9971 H       1  <0>         0.0815
     50 H17        25.1927  -13.0957   24.2880 H       1  <0>         0.0880
     51 H18        24.7198  -14.6942   24.9589 H       1  <0>         0.0880
     52 H19        20.9958  -12.7825   20.7231 H       1  <0>         0.0281
     53 H20        20.2609  -11.1531   20.5240 H       1  <0>         0.0281
     54 H21        19.1558  -15.1664   21.3522 H       1  <0>         0.0514
     55 H22        18.0105  -14.6720   22.6754 H       1  <0>         0.0514
     56 H23        17.1982  -13.7750   18.4594 H       1  <0>         0.0855
     57 H24        19.1650  -13.6706   19.3061 H       1  <0>         0.0505
     58 H25        15.5772  -10.3483   19.3518 H       1  <0>         0.0912
     59 H26        18.3535  -11.0809   18.6936 H       1  <0>         0.0383
     60 H27        17.2904  -10.4407   21.0412 H       1  <0>         0.0459
     61 H28         9.9680   -9.4101   24.6027 H       1  <0>         0.1477
     62 H29        11.2328   -8.6005   23.7396 H       1  <0>         0.1477
     63 H30         9.6820  -11.5703   24.5066 H       1  <0>         0.4359
     64 H31        10.6959  -12.6127   23.5655 H       1  <0>         0.4359
     65 H32        15.1602  -13.2718   19.6517 H       1  <0>         0.2043
@<TRIPOS>BOND
     1     1    13    1
     2     2     4   ar
     3     2    15   ar
     4     3     5   ar
     5     3    15   ar
     6     4    16   ar
     7     5    16   ar
     8     6     7   ar
     9     6    17   ar
    10     7    18   ar
    11     8    17   ar
    12     8    19   ar
    13     9    10    1
    14     9    11    1
    15    10    20    1
    16    11    29    1
    17    12    32    1
    18    12    33    1
    19    13    21    1
    20    14    17    1
    21    14    30    1
    22    15    22    1
    23    16    26    1
    24    18    19   ar
    25    18    32    1
    26    19    33    1
    27    20    23    1
    28    20    29    1
    29    21    23    1
    30    21    30    1
    31    22    24    1
    32    22    29    1
    33    23    24    1
    34    24    25    1
    35    25    30   am
    36    25    31    2
    37    26    27    1
    38    26    28    2
    39     1    34    1
    40     1    35    1
    41     1    36    1
    42     2    37    1
    43     3    38    1
    44     4    39    1
    45     5    40    1
    46     6    41    1
    47     7    42    1
    48     8    43    1
    49     9    44    1
    50     9    45    1
    51    10    46    1
    52    10    47    1
    53    11    48    1
    54    11    49    1
    55    12    50    1
    56    12    51    1
    57    13    52    1
    58    13    53    1
    59    14    54    1
    60    14    55    1
    61    20    56    1
    62    21    57    1
    63    22    58    1
    64    23    59    1
    65    24    60    1
    66    27    61    1
    67    27    62    1
    68    28    63    1
    69    28    64    1
    70    29    65    1
@<TRIPOS>SUBSTRUCTURE
     1 <0>         1 TEMP              0 ****  ****    0 ROOT

