
##########                                Name:      UIP_H5555_1YPE
##########                    Molecular_Weight:             448.565
##########                DOCK_Rotatable_Bonds:                   4
##########                       Formal_Charge:              2.0001
##########                     HBond_Acceptors:                   7
##########                        HBond_Donors:                   5
##########                         Heavy_Atoms:                  33
##########                            HA_RMSDs:               0.799
##########                            HA_RMSDh:               0.799
##########                            HA_RMSDm:               0.794
##########                          Grid_Score:         -192.485336
##########                     Grid_vdw_energy:          -57.368942
##########                      Grid_es_energy:         -135.116394
##########           Internal_energy_repulsive:           18.240192

@<TRIPOS>MOLECULE
UIP_H5555_1YPE
 65 70 1 0 0
SMALL
USER_CHARGES


@<TRIPOS>ATOM
      1 C1         20.8207  -11.9277   18.3236 C.3     1  <0>        -0.0636
      2 C2         14.3182   -9.8402   21.4802 C.ar    1  <0>        -0.0524
      3 C3         13.6734  -12.1149   21.0425 C.ar    1  <0>        -0.0524
      4 C4         13.2995   -9.7033   22.4047 C.ar    1  <0>        -0.0465
      5 C5         12.6209  -11.9844   21.9649 C.ar    1  <0>        -0.0465
      6 C6         18.8839  -14.2709   23.7763 C.ar    1  <0>        -0.0545
      7 C7         19.5910  -14.1529   24.9917 C.ar    1  <0>        -0.0287
      8 C8         20.7906  -15.1579   22.5315 C.ar    1  <0>        -0.0244
      9 C9         15.2172  -11.8342   16.3922 C.3     1  <0>        -0.0074
     10 C10        16.6556  -11.6015   16.8163 C.3     1  <0>        -0.0045
     11 C11        14.4120  -11.8465   17.7161 C.3     1  <0>        -0.0308
     12 C12        22.9935  -15.2504   25.4051 C.3     1  <0>         0.1600
     13 C13        20.2814  -12.4804   19.6495 C.3     1  <0>        -0.0366
     14 C14        18.6073  -14.8321   21.2885 C.3     1  <0>         0.0401
     15 C15        14.5373  -11.0457   20.7909 C.ar    1  <0>         0.0010
     16 C16        12.4270  -10.7773   22.6536 C.ar    1  <0>         0.0611
     17 C17        19.4394  -14.7689   22.5529 C.ar    1  <0>        -0.0275
     18 C18        20.9348  -14.5265   24.9209 C.ar    1  <0>         0.1090
     19 C19        21.5158  -15.0311   23.7396 C.ar    1  <0>         0.1093
     20 C20        16.7244  -12.4532   18.1027 C.3     1  <0>        -0.0146
     21 C21        18.8194  -12.9657   19.4689 C.3     1  <0>         0.0349
     22 C22        15.6601  -11.1652   19.7981 C.3     1  <0>         0.0171
     23 C23        17.8301  -11.8398   19.0257 C.3     1  <0>         0.0372
     24 C24        17.0614  -11.4860   20.3374 C.3     1  <0>         0.0923
     25 C25        17.1232  -12.8360   21.0951 C.2     1  <0>         0.2255
     26 C26        11.3584  -10.6859   23.5849 C.cat   1  <0>         0.2605
     27 N1         11.0890   -9.5692   24.3116 N.pl3   1  <0>        -0.3060
     28 N2         10.5257  -11.7154   23.8107 N.pl3   1  <0>        -0.2158
     29 N3         15.3854  -12.2308   18.7768 N.4     1  <0>         0.2436
     30 N4         18.2454  -13.5077   20.6682 N.am    1  <0>        -0.2932
     31 O1         16.5294  -13.0544   22.1830 O.2     1  <0>        -0.2750
     32 O2         21.9118  -14.3796   25.8871 O.3     1  <0>        -0.3151
     33 O3         22.7987  -15.5364   23.9953 O.3     1  <0>        -0.3150
     34 H1         21.8572  -11.5866   18.4624 H       1  <0>         0.0230
     35 H2         20.7944  -12.7183   17.5591 H       1  <0>         0.0230
     36 H3         20.1970  -11.0820   17.9983 H       1  <0>         0.0230
     37 H4         14.9638   -8.9974   21.2819 H       1  <0>         0.0622
     38 H5         13.8159  -13.0509   20.5230 H       1  <0>         0.0622
     39 H6         13.1739   -8.7713   22.9357 H       1  <0>         0.0626
     40 H7         11.9577  -12.8177   22.1444 H       1  <0>         0.0626
     41 H8         17.8486  -13.9636   23.7674 H       1  <0>         0.0622
     42 H9         19.1302  -13.8019   25.9032 H       1  <0>         0.0644
     43 H10        21.2542  -15.5367   21.6326 H       1  <0>         0.0647
     44 H11        14.8674  -11.0334   15.7240 H       1  <0>         0.0319
     45 H12        15.1124  -12.7894   15.8568 H       1  <0>         0.0319
     46 H13        17.3763  -11.9336   16.0545 H       1  <0>         0.0322
     47 H14        16.8707  -10.5394   17.0046 H       1  <0>         0.0322
     48 H15        13.9841  -10.8541   17.9211 H       1  <0>         0.0815
     49 H16        13.5866  -12.5717   17.6635 H       1  <0>         0.0815
     50 H17        23.9600  -14.7443   25.5453 H       1  <0>         0.0880
     51 H18        22.9855  -16.1920   25.9737 H       1  <0>         0.0880
     52 H19        20.9072  -13.3257   19.9717 H       1  <0>         0.0281
     53 H20        20.3091  -11.6875   20.4114 H       1  <0>         0.0281
     54 H21        19.1866  -15.3961   20.5426 H       1  <0>         0.0514
     55 H22        17.6669  -15.3442   21.5402 H       1  <0>         0.0514
     56 H23        16.9402  -13.5139   17.9067 H       1  <0>         0.0855
     57 H24        18.9248  -13.7326   18.6874 H       1  <0>         0.0505
     58 H25        15.6810  -10.1422   19.3942 H       1  <0>         0.0912
     59 H26        18.3582  -11.0135   18.5272 H       1  <0>         0.0383
     60 H27        17.4114  -10.6677   20.9839 H       1  <0>         0.0459
     61 H28        10.3206   -9.5624   24.9515 H       1  <0>         0.1477
     62 H29        11.6593   -8.7545   24.2065 H       1  <0>         0.1477
     63 H30         9.7806  -11.6203   24.4709 H       1  <0>         0.4359
     64 H31        10.6507  -12.5769   23.3186 H       1  <0>         0.4359
     65 H32        14.9862  -13.0238   19.2370 H       1  <0>         0.2043
@<TRIPOS>BOND
     1     1    13    1
     2     2     4   ar
     3     2    15   ar
     4     3     5   ar
     5     3    15   ar
     6     4    16   ar
     7     5    16   ar
     8     6     7   ar
     9     6    17   ar
    10     7    18   ar
    11     8    17   ar
    12     8    19   ar
    13     9    10    1
    14     9    11    1
    15    10    20    1
    16    11    29    1
    17    12    32    1
    18    12    33    1
    19    13    21    1
    20    14    17    1
    21    14    30    1
    22    15    22    1
    23    16    26    1
    24    18    19   ar
    25    18    32    1
    26    19    33    1
    27    20    23    1
    28    20    29    1
    29    21    23    1
    30    21    30    1
    31    22    24    1
    32    22    29    1
    33    23    24    1
    34    24    25    1
    35    25    30   am
    36    25    31    2
    37    26    27    1
    38    26    28    2
    39     1    34    1
    40     1    35    1
    41     1    36    1
    42     2    37    1
    43     3    38    1
    44     4    39    1
    45     5    40    1
    46     6    41    1
    47     7    42    1
    48     8    43    1
    49     9    44    1
    50     9    45    1
    51    10    46    1
    52    10    47    1
    53    11    48    1
    54    11    49    1
    55    12    50    1
    56    12    51    1
    57    13    52    1
    58    13    53    1
    59    14    54    1
    60    14    55    1
    61    20    56    1
    62    21    57    1
    63    22    58    1
    64    23    59    1
    65    24    60    1
    66    27    61    1
    67    27    62    1
    68    28    63    1
    69    28    64    1
    70    29    65    1
@<TRIPOS>SUBSTRUCTURE
     1 <0>         1 TEMP              0 ****  ****    0 ROOT

