
##########                                Name:        982_301_2AZR
##########                    Molecular_Weight:             251.219
##########                DOCK_Rotatable_Bonds:                   4
##########                       Formal_Charge:             -1.9997
##########                     HBond_Acceptors:                   7
##########                        HBond_Donors:                   0
##########                         Heavy_Atoms:                  17
##########                            HA_RMSDs:               9.259
##########                            HA_RMSDh:               9.159
##########                            HA_RMSDm:               8.492
##########                          Grid_Score:           43.077904
##########                     Grid_vdw_energy:           -9.188475
##########                      Grid_es_energy:           52.266376
##########           Internal_energy_repulsive:            2.713301

@<TRIPOS>MOLECULE
982_301_2AZR
 22 23 1 0 0
SMALL
USER_CHARGES


@<TRIPOS>ATOM
      1 C1         44.0446   16.8131   -1.7638 C.ar    1  <0>        -0.0429
      2 C2         44.0711   17.2442   -3.0933 C.ar    1  <0>        -0.0481
      3 C3         44.0745   15.4518   -1.4978 C.ar    1  <0>         0.0289
      4 C4         45.3125   18.3928   -6.0627 C.3     1  <0>         0.0935
      5 C5         44.1298   16.2799   -4.1258 C.ar    1  <0>         0.0383
      6 C6         44.1778   16.3786   -5.5623 C.2     1  <0>         0.1018
      7 C7         44.2270   15.1257   -6.1576 C.2     1  <0>         0.0670
      8 C8         44.1577   14.9432   -3.7101 C.ar    1  <0>         0.1113
      9 C9         45.8191   18.9173   -7.4180 C.2     1  <0>         0.0679
     10 C10        44.2920   14.7828   -7.6865 C.2     1  <0>         0.0808
     11 N1         44.1293   14.4804   -2.4369 N.ar    1  <0>        -0.2477
     12 O1         45.3575   18.3967   -8.4626 O.co2   1  <0>        -0.5474
     13 O2         43.8795   15.6480   -8.5180 O.co2   1  <0>        -0.5440
     14 O3         46.6513   19.8450   -7.3458 O.co2   1  <0>        -0.5474
     15 O4         44.7629   13.6401   -7.9612 O.co2   1  <0>        -0.5440
     16 O5         44.1566   17.5619   -6.2550 O.3     1  <0>        -0.3371
     17 S1         44.2382   13.8512   -5.0112 S.3     1  <0>        -0.0649
     18 H1         44.0014   17.5287   -0.9561 H       1  <0>         0.0633
     19 H2         44.0470   18.2980   -3.3284 H       1  <0>         0.0626
     20 H3         44.0524   15.1447   -0.4626 H       1  <0>         0.0830
     21 H4         46.1071   17.8032   -5.5821 H       1  <0>         0.0627
     22 H5         45.0439   19.2451   -5.4213 H       1  <0>         0.0627
@<TRIPOS>BOND
     1     1     2   ar
     2     1     3   ar
     3     2     5   ar
     4     3    11   ar
     5     4     9    1
     6     4    16    1
     7     5     6    1
     8     5     8   ar
     9     6     7    2
    10     6    16    1
    11     7    10    1
    12     7    17    1
    13     8    11   ar
    14     8    17    1
    15     9    12    1
    16     9    14    2
    17    10    13    1
    18    10    15    2
    19     1    18    1
    20     2    19    1
    21     3    20    1
    22     4    21    1
    23     4    22    1
@<TRIPOS>SUBSTRUCTURE
     1 <0>         1 TEMP              0 ****  ****    0 ROOT

