
##########                                Name:        982_301_2AZR
##########                    Molecular_Weight:             251.219
##########                DOCK_Rotatable_Bonds:                   4
##########                       Formal_Charge:             -1.9997
##########                     HBond_Acceptors:                   7
##########                        HBond_Donors:                   0
##########                         Heavy_Atoms:                  17
##########                            HA_RMSDs:              19.152
##########                            HA_RMSDh:              19.126
##########                            HA_RMSDm:              18.639
##########                          Grid_Score:           33.402496
##########                     Grid_vdw_energy:           -0.646249
##########                      Grid_es_energy:           34.048744
##########           Internal_energy_repulsive:            2.154687

@<TRIPOS>MOLECULE
982_301_2AZR
 22 23 1 0 0
SMALL
USER_CHARGES


@<TRIPOS>ATOM
      1 C1         56.3274   26.8108   -2.4283 C.ar    1  <0>        -0.0429
      2 C2         56.4814   27.7701   -3.4333 C.ar    1  <0>        -0.0481
      3 C3         55.5841   25.6703   -2.6958 C.ar    1  <0>         0.0289
      4 C4         57.8904   29.4864   -6.0634 C.3     1  <0>         0.0935
      5 C5         55.8769   27.5477   -4.6920 C.ar    1  <0>         0.0383
      6 C6         55.8455   28.3068   -5.9160 C.2     1  <0>         0.1018
      7 C7         55.1043   27.6619   -6.8966 C.2     1  <0>         0.0670
      8 C8         55.1595   26.3522   -4.8205 C.ar    1  <0>         0.1113
      9 C9         58.4618   30.8606   -6.4559 C.2     1  <0>         0.0679
     10 C10        54.8220   28.1359   -8.3645 C.2     1  <0>         0.0808
     11 N1         54.9805   25.3984   -3.8748 N.ar    1  <0>        -0.2477
     12 O1         59.6523   30.9144   -6.8497 O.co2   1  <0>        -0.5474
     13 O2         53.6320   28.0757   -8.8007 O.co2   1  <0>        -0.5440
     14 O3         57.6599   31.8121   -6.3563 O.co2   1  <0>        -0.5474
     15 O4         55.8365   28.5468   -9.0008 O.co2   1  <0>        -0.5440
     16 O5         56.4546   29.5239   -6.0844 O.3     1  <0>        -0.3371
     17 S1         54.4745   26.1588   -6.3649 S.3     1  <0>        -0.0649
     18 H1         56.7801   26.9552   -1.4584 H       1  <0>         0.0633
     19 H2         57.0535   28.6679   -3.2511 H       1  <0>         0.0626
     20 H3         55.4797   24.9449   -1.9025 H       1  <0>         0.0830
     21 H4         58.2440   28.7290   -6.7783 H       1  <0>         0.0627
     22 H5         58.2317   29.2277   -5.0502 H       1  <0>         0.0627
@<TRIPOS>BOND
     1     1     2   ar
     2     1     3   ar
     3     2     5   ar
     4     3    11   ar
     5     4     9    1
     6     4    16    1
     7     5     6    1
     8     5     8   ar
     9     6     7    2
    10     6    16    1
    11     7    10    1
    12     7    17    1
    13     8    11   ar
    14     8    17    1
    15     9    12    1
    16     9    14    2
    17    10    13    1
    18    10    15    2
    19     1    18    1
    20     2    19    1
    21     3    20    1
    22     4    21    1
    23     4    22    1
@<TRIPOS>SUBSTRUCTURE
     1 <0>         1 TEMP              0 ****  ****    0 ROOT

