
##########                                Name:        982_301_2AZR
##########                    Molecular_Weight:             251.219
##########                DOCK_Rotatable_Bonds:                   4
##########                       Formal_Charge:             -1.9997
##########                     HBond_Acceptors:                   7
##########                        HBond_Donors:                   0
##########                         Heavy_Atoms:                  17
##########                            HA_RMSDs:              19.561
##########                            HA_RMSDh:              19.552
##########                            HA_RMSDm:              18.994
##########                          Grid_Score:           32.735188
##########                     Grid_vdw_energy:           -0.539007
##########                      Grid_es_energy:           33.274193
##########           Internal_energy_repulsive:            2.224877

@<TRIPOS>MOLECULE
982_301_2AZR
 22 23 1 0 0
SMALL
USER_CHARGES


@<TRIPOS>ATOM
      1 C1         51.3482   29.7909   -3.9957 C.ar    1  <0>        -0.0429
      2 C2         52.4894   30.1203   -4.7327 C.ar    1  <0>        -0.0481
      3 C3         50.3815   28.9841   -4.5782 C.ar    1  <0>         0.0289
      4 C4         55.7944   29.8735   -6.0625 C.3     1  <0>         0.0935
      5 C5         52.6245   29.6195   -6.0481 C.ar    1  <0>         0.0383
      6 C6         53.6492   29.7546   -7.0516 C.2     1  <0>         0.1018
      7 C7         53.3216   29.0641   -8.2104 C.2     1  <0>         0.0670
      8 C8         51.5729   28.8157   -6.5047 C.ar    1  <0>         0.1113
      9 C9         57.1828   30.4518   -6.3891 C.2     1  <0>         0.0679
     10 C10        54.1536   28.9463   -9.5345 C.2     1  <0>         0.0808
     11 N1         50.4491   28.4748   -5.8290 N.ar    1  <0>        -0.2477
     12 O1         57.2793   31.6903   -6.5683 O.co2   1  <0>        -0.5474
     13 O2         55.3273   29.4277   -9.5555 O.co2   1  <0>        -0.5440
     14 O3         58.1062   29.6127   -6.4306 O.co2   1  <0>        -0.5474
     15 O4         53.5614   28.3658  -10.4911 O.co2   1  <0>        -0.5440
     16 O5         54.7950   30.4903   -6.8895 O.3     1  <0>        -0.3371
     17 S1         51.8190   28.2479   -8.0888 S.3     1  <0>        -0.0649
     18 H1         51.2210   30.1588   -2.9882 H       1  <0>         0.0633
     19 H2         53.2565   30.7481   -4.3039 H       1  <0>         0.0626
     20 H3         49.5092   28.7447   -3.9881 H       1  <0>         0.0830
     21 H4         55.8003   28.7893   -6.2483 H       1  <0>         0.0627
     22 H5         55.5604   30.0670   -5.0053 H       1  <0>         0.0627
@<TRIPOS>BOND
     1     1     2   ar
     2     1     3   ar
     3     2     5   ar
     4     3    11   ar
     5     4     9    1
     6     4    16    1
     7     5     6    1
     8     5     8   ar
     9     6     7    2
    10     6    16    1
    11     7    10    1
    12     7    17    1
    13     8    11   ar
    14     8    17    1
    15     9    12    1
    16     9    14    2
    17    10    13    1
    18    10    15    2
    19     1    18    1
    20     2    19    1
    21     3    20    1
    22     4    21    1
    23     4    22    1
@<TRIPOS>SUBSTRUCTURE
     1 <0>         1 TEMP              0 ****  ****    0 ROOT

