
##########                                Name:        982_301_2AZR
##########                    Molecular_Weight:             251.219
##########                DOCK_Rotatable_Bonds:                   4
##########                       Formal_Charge:             -1.9997
##########                     HBond_Acceptors:                   7
##########                        HBond_Donors:                   0
##########                         Heavy_Atoms:                  17
##########                            HA_RMSDs:               6.256
##########                            HA_RMSDh:               5.773
##########                            HA_RMSDm:               5.337
##########                          Grid_Score:           56.349598
##########                     Grid_vdw_energy:          -22.419552
##########                      Grid_es_energy:           78.769150
##########           Internal_energy_repulsive:            2.931543

@<TRIPOS>MOLECULE
982_301_2AZR
 22 23 1 0 0
SMALL
USER_CHARGES


@<TRIPOS>ATOM
      1 C1         44.8045   16.3798    2.5712 C.ar    1  <0>        -0.0429
      2 C2         44.4128   16.0566    1.2689 C.ar    1  <0>        -0.0481
      3 C3         45.2611   15.3701    3.4060 C.ar    1  <0>         0.0289
      4 C4         44.6912   15.1826   -2.4205 C.3     1  <0>         0.0935
      5 C5         44.4959   14.7113    0.8417 C.ar    1  <0>         0.0383
      6 C6         44.1901   14.0539   -0.4032 C.2     1  <0>         0.1018
      7 C7         44.4411   12.6904   -0.3343 C.2     1  <0>         0.0670
      8 C8         44.9777   13.8000    1.7893 C.ar    1  <0>         0.1113
      9 C9         44.2696   14.8970   -3.8729 C.2     1  <0>         0.0679
     10 C10        44.2500   11.6135   -1.4581 C.2     1  <0>         0.0808
     11 N1         45.3635   14.0669    3.0604 N.ar    1  <0>        -0.2477
     12 O1         43.1298   14.4107   -4.0721 O.co2   1  <0>        -0.5474
     13 O2         43.5203   11.9032   -2.4550 O.co2   1  <0>        -0.5440
     14 O3         45.1189   15.1986   -4.7366 O.co2   1  <0>        -0.5474
     15 O4         44.8576   10.5200   -1.2631 O.co2   1  <0>        -0.5440
     16 O5         43.6937   14.6922   -1.5107 O.3     1  <0>        -0.3371
     17 S1         45.0553   12.2096    1.1922 S.3     1  <0>        -0.0649
     18 H1         44.7526   17.3999    2.9223 H       1  <0>         0.0633
     19 H2         44.0519   16.8230    0.5990 H       1  <0>         0.0626
     20 H3         45.5571   15.6459    4.4074 H       1  <0>         0.0830
     21 H4         45.6479   14.6800   -2.2151 H       1  <0>         0.0627
     22 H5         44.8057   16.2679   -2.2827 H       1  <0>         0.0627
@<TRIPOS>BOND
     1     1     2   ar
     2     1     3   ar
     3     2     5   ar
     4     3    11   ar
     5     4     9    1
     6     4    16    1
     7     5     6    1
     8     5     8   ar
     9     6     7    2
    10     6    16    1
    11     7    10    1
    12     7    17    1
    13     8    11   ar
    14     8    17    1
    15     9    12    1
    16     9    14    2
    17    10    13    1
    18    10    15    2
    19     1    18    1
    20     2    19    1
    21     3    20    1
    22     4    21    1
    23     4    22    1
@<TRIPOS>SUBSTRUCTURE
     1 <0>         1 TEMP              0 ****  ****    0 ROOT

