
##########                                Name:        982_301_2AZR
##########                    Molecular_Weight:             251.219
##########                DOCK_Rotatable_Bonds:                   4
##########                       Formal_Charge:             -1.9997
##########                     HBond_Acceptors:                   7
##########                        HBond_Donors:                   0
##########                         Heavy_Atoms:                  17
##########                            HA_RMSDs:              11.672
##########                            HA_RMSDh:              11.596
##########                            HA_RMSDm:              10.917
##########                          Grid_Score:           36.822475
##########                     Grid_vdw_energy:           -7.291284
##########                      Grid_es_energy:           44.113758
##########           Internal_energy_repulsive:            4.277659

@<TRIPOS>MOLECULE
982_301_2AZR
 22 23 1 0 0
SMALL
USER_CHARGES


@<TRIPOS>ATOM
      1 C1         43.9413   18.5202   -4.2019 C.ar    1  <0>        -0.0429
      2 C2         44.0679   19.0619   -5.4843 C.ar    1  <0>        -0.0481
      3 C3         44.1320   17.1573   -4.0260 C.ar    1  <0>         0.0289
      4 C4         45.1567   20.7269   -7.8919 C.3     1  <0>         0.0935
      5 C5         44.3887   18.2048   -6.5621 C.ar    1  <0>         0.0383
      6 C6         44.5967   18.4301   -7.9697 C.2     1  <0>         0.1018
      7 C7         44.8959   17.2497   -8.6359 C.2     1  <0>         0.0670
      8 C8         44.5556   16.8533   -6.2368 C.ar    1  <0>         0.1113
      9 C9         45.7062   21.7453   -8.9066 C.2     1  <0>         0.0679
     10 C10        45.1948   17.0490  -10.1622 C.2     1  <0>         0.0808
     11 N1         44.4384   16.2848   -5.0124 N.ar    1  <0>        -0.2477
     12 O1         46.3130   21.3066   -9.9139 O.co2   1  <0>        -0.5474
     13 O2         44.3032   17.3816  -11.0015 O.co2   1  <0>        -0.5440
     14 O3         45.4761   22.9407   -8.6301 O.co2   1  <0>        -0.5474
     15 O4         46.3313   16.5579  -10.4270 O.co2   1  <0>        -0.5440
     16 O5         44.4919   19.6545   -8.5784 O.3     1  <0>        -0.3371
     17 S1         44.9486   15.8956   -7.5859 S.3     1  <0>        -0.0649
     18 H1         43.6987   19.1530   -3.3609 H       1  <0>         0.0633
     19 H2         43.9229   20.1193   -5.6494 H       1  <0>         0.0626
     20 H3         44.0279   16.7636   -3.0257 H       1  <0>         0.0830
     21 H4         45.9897   20.3181   -7.3011 H       1  <0>         0.0627
     22 H5         44.4409   21.2295   -7.2249 H       1  <0>         0.0627
@<TRIPOS>BOND
     1     1     2   ar
     2     1     3   ar
     3     2     5   ar
     4     3    11   ar
     5     4     9    1
     6     4    16    1
     7     5     6    1
     8     5     8   ar
     9     6     7    2
    10     6    16    1
    11     7    10    1
    12     7    17    1
    13     8    11   ar
    14     8    17    1
    15     9    12    1
    16     9    14    2
    17    10    13    1
    18    10    15    2
    19     1    18    1
    20     2    19    1
    21     3    20    1
    22     4    21    1
    23     4    22    1
@<TRIPOS>SUBSTRUCTURE
     1 <0>         1 TEMP              0 ****  ****    0 ROOT

