
##########                                Name:        982_301_2AZR
##########                    Molecular_Weight:             251.219
##########                DOCK_Rotatable_Bonds:                   4
##########                       Formal_Charge:             -1.9997
##########                     HBond_Acceptors:                   7
##########                        HBond_Donors:                   0
##########                         Heavy_Atoms:                  17
##########                            HA_RMSDs:              10.753
##########                            HA_RMSDh:              10.693
##########                            HA_RMSDm:              10.085
##########                          Grid_Score:           39.528595
##########                     Grid_vdw_energy:           -6.379515
##########                      Grid_es_energy:           45.908108
##########           Internal_energy_repulsive:            4.038021

@<TRIPOS>MOLECULE
982_301_2AZR
 22 23 1 0 0
SMALL
USER_CHARGES


@<TRIPOS>ATOM
      1 C1         44.5011   17.5787   -3.3814 C.ar    1  <0>        -0.0429
      2 C2         44.8497   18.1776   -4.5954 C.ar    1  <0>        -0.0481
      3 C3         44.4339   16.1949   -3.3094 C.ar    1  <0>         0.0289
      4 C4         47.0507   19.3281   -7.6769 C.3     1  <0>         0.0935
      5 C5         45.1253   17.3548   -5.7118 C.ar    1  <0>         0.0383
      6 C6         45.5115   17.6375   -7.0706 C.2     1  <0>         0.1018
      7 C7         45.6679   16.4724   -7.8086 C.2     1  <0>         0.0670
      8 C8         45.0214   15.9759   -5.4925 C.ar    1  <0>         0.1113
      9 C9         47.1751   20.4682   -8.7032 C.2     1  <0>         0.0679
     10 C10        46.0815   16.3291   -9.3145 C.2     1  <0>         0.0808
     11 N1         44.6834   15.3531   -4.3377 N.ar    1  <0>        -0.2477
     12 O1         46.1388   20.8314   -9.3110 O.co2   1  <0>        -0.5474
     13 O2         46.6095   17.3269   -9.8938 O.co2   1  <0>        -0.5440
     14 O3         48.3227   20.9445   -8.8246 O.co2   1  <0>        -0.5474
     15 O4         45.8432   15.1984   -9.8317 O.co2   1  <0>        -0.5440
     16 O5         45.6830   18.9005   -7.5766 O.3     1  <0>        -0.3371
     17 S1         45.3780   15.0604   -6.8806 S.3     1  <0>        -0.0649
     18 H1         44.2874   18.1840   -2.5128 H       1  <0>         0.0633
     19 H2         44.9077   19.2528   -4.6794 H       1  <0>         0.0626
     20 H3         44.1618   15.7569   -2.3604 H       1  <0>         0.0830
     21 H4         47.6731   18.4804   -7.9992 H       1  <0>         0.0627
     22 H5         47.3918   19.6859   -6.6942 H       1  <0>         0.0627
@<TRIPOS>BOND
     1     1     2   ar
     2     1     3   ar
     3     2     5   ar
     4     3    11   ar
     5     4     9    1
     6     4    16    1
     7     5     6    1
     8     5     8   ar
     9     6     7    2
    10     6    16    1
    11     7    10    1
    12     7    17    1
    13     8    11   ar
    14     8    17    1
    15     9    12    1
    16     9    14    2
    17    10    13    1
    18    10    15    2
    19     1    18    1
    20     2    19    1
    21     3    20    1
    22     4    21    1
    23     4    22    1
@<TRIPOS>SUBSTRUCTURE
     1 <0>         1 TEMP              0 ****  ****    0 ROOT

