
##########                                Name:        982_301_2AZR
##########                    Molecular_Weight:             251.219
##########                DOCK_Rotatable_Bonds:                   4
##########                       Formal_Charge:             -1.9997
##########                     HBond_Acceptors:                   7
##########                        HBond_Donors:                   0
##########                         Heavy_Atoms:                  17
##########                            HA_RMSDs:              22.281
##########                            HA_RMSDh:              22.082
##########                            HA_RMSDm:              21.501
##########                          Grid_Score:           29.253624
##########                     Grid_vdw_energy:           -0.448213
##########                      Grid_es_energy:           29.701838
##########           Internal_energy_repulsive:            1.811753

@<TRIPOS>MOLECULE
982_301_2AZR
 22 23 1 0 0
SMALL
USER_CHARGES


@<TRIPOS>ATOM
      1 C1         57.0513    1.8865   -4.1917 C.ar    1  <0>        -0.0429
      2 C2         56.6099    0.9666   -5.1473 C.ar    1  <0>        -0.0481
      3 C3         58.4141    2.0265   -3.9726 C.ar    1  <0>         0.0289
      4 C4         55.6771   -0.3898   -8.3995 C.3     1  <0>         0.0935
      5 C5         57.5657    0.2090   -5.8626 C.ar    1  <0>         0.0383
      6 C6         57.4564   -0.7913   -6.8936 C.2     1  <0>         0.1018
      7 C7         58.7039   -1.2550   -7.2879 C.2     1  <0>         0.0670
      8 C8         58.9053    0.4571   -5.5395 C.ar    1  <0>         0.1113
      9 C9         54.7618   -1.2099   -9.3260 C.2     1  <0>         0.0679
     10 C10        59.0353   -2.3340   -8.3766 C.2     1  <0>         0.0808
     11 N1         59.3776    1.3332   -4.6201 N.ar    1  <0>        -0.2477
     12 O1         55.2871   -1.8086  -10.2960 O.co2   1  <0>        -0.5474
     13 O2         59.8242   -3.2793   -8.0701 O.co2   1  <0>        -0.5440
     14 O3         53.5551   -1.2125   -9.0061 O.co2   1  <0>        -0.5474
     15 O4         58.4703   -2.1587   -9.4960 O.co2   1  <0>        -0.5440
     16 O5         56.2676   -1.2433   -7.4064 O.3     1  <0>        -0.3371
     17 S1         59.9874   -0.4866   -6.4507 S.3     1  <0>        -0.0649
     18 H1         56.3423    2.4791   -3.6326 H       1  <0>         0.0633
     19 H2         55.5546    0.8366   -5.3364 H       1  <0>         0.0626
     20 H3         58.7291    2.7433   -3.2287 H       1  <0>         0.0830
     21 H4         56.4741    0.0765   -8.9972 H       1  <0>         0.0627
     22 H5         55.0833    0.3902   -7.9007 H       1  <0>         0.0627
@<TRIPOS>BOND
     1     1     2   ar
     2     1     3   ar
     3     2     5   ar
     4     3    11   ar
     5     4     9    1
     6     4    16    1
     7     5     6    1
     8     5     8   ar
     9     6     7    2
    10     6    16    1
    11     7    10    1
    12     7    17    1
    13     8    11   ar
    14     8    17    1
    15     9    12    1
    16     9    14    2
    17    10    13    1
    18    10    15    2
    19     1    18    1
    20     2    19    1
    21     3    20    1
    22     4    21    1
    23     4    22    1
@<TRIPOS>SUBSTRUCTURE
     1 <0>         1 TEMP              0 ****  ****    0 ROOT

