
##########                                Name:        982_301_2AZR
##########                    Molecular_Weight:             251.219
##########                DOCK_Rotatable_Bonds:                   4
##########                       Formal_Charge:             -1.9997
##########                     HBond_Acceptors:                   7
##########                        HBond_Donors:                   0
##########                         Heavy_Atoms:                  17
##########                            HA_RMSDs:              10.854
##########                            HA_RMSDh:              10.663
##########                            HA_RMSDm:              10.077
##########                          Grid_Score:           41.074440
##########                     Grid_vdw_energy:           -8.340504
##########                      Grid_es_energy:           49.414944
##########           Internal_energy_repulsive:            4.000792

@<TRIPOS>MOLECULE
982_301_2AZR
 22 23 1 0 0
SMALL
USER_CHARGES


@<TRIPOS>ATOM
      1 C1         43.9995   16.5878   -3.0025 C.ar    1  <0>        -0.0429
      2 C2         43.9424   15.9819   -4.2610 C.ar    1  <0>        -0.0481
      3 C3         44.2165   17.9558   -2.9243 C.ar    1  <0>         0.0289
      4 C4         42.7842   14.5184   -6.8332 C.3     1  <0>         0.0935
      5 C5         44.1052   16.7821   -5.4153 C.ar    1  <0>         0.0383
      6 C6         44.0936   16.4881   -6.8255 C.2     1  <0>         0.1018
      7 C7         44.3038   17.6304   -7.5858 C.2     1  <0>         0.0670
      8 C8         44.3140   18.1474   -5.1855 C.ar    1  <0>         0.1113
      9 C9         42.0071   13.8543   -7.9838 C.2     1  <0>         0.0679
     10 C10        44.3621   17.7558   -9.1479 C.2     1  <0>         0.0808
     11 N1         44.3811   18.7756   -3.9869 N.ar    1  <0>        -0.2477
     12 O1         42.2638   14.2184   -9.1571 O.co2   1  <0>        -0.5474
     13 O2         44.5056   16.6982   -9.8341 O.co2   1  <0>        -0.5440
     14 O3         41.1852   12.9836   -7.6304 O.co2   1  <0>        -0.5474
     15 O4         44.2591   18.9353   -9.5963 O.co2   1  <0>        -0.5440
     16 O5         43.9176   15.2335   -7.3503 O.3     1  <0>        -0.3371
     17 S1         44.4897   19.0372   -6.6240 S.3     1  <0>        -0.0649
     18 H1         43.8766   15.9999   -2.1048 H       1  <0>         0.0633
     19 H2         43.7763   14.9185   -4.3503 H       1  <0>         0.0626
     20 H3         44.2570   18.3994   -1.9404 H       1  <0>         0.0830
     21 H4         42.1218   15.2208   -6.3061 H       1  <0>         0.0627
     22 H5         43.1323   13.7426   -6.1354 H       1  <0>         0.0627
@<TRIPOS>BOND
     1     1     2   ar
     2     1     3   ar
     3     2     5   ar
     4     3    11   ar
     5     4     9    1
     6     4    16    1
     7     5     6    1
     8     5     8   ar
     9     6     7    2
    10     6    16    1
    11     7    10    1
    12     7    17    1
    13     8    11   ar
    14     8    17    1
    15     9    12    1
    16     9    14    2
    17    10    13    1
    18    10    15    2
    19     1    18    1
    20     2    19    1
    21     3    20    1
    22     4    21    1
    23     4    22    1
@<TRIPOS>SUBSTRUCTURE
     1 <0>         1 TEMP              0 ****  ****    0 ROOT

