
##########                                Name:        982_301_2AZR
##########                    Molecular_Weight:             251.219
##########                DOCK_Rotatable_Bonds:                   4
##########                       Formal_Charge:             -1.9997
##########                     HBond_Acceptors:                   7
##########                        HBond_Donors:                   0
##########                         Heavy_Atoms:                  17
##########                            HA_RMSDs:               9.219
##########                            HA_RMSDh:               9.042
##########                            HA_RMSDm:               8.542
##########                          Grid_Score:           44.405853
##########                     Grid_vdw_energy:           -8.870204
##########                      Grid_es_energy:           53.276058
##########           Internal_energy_repulsive:            2.835615

@<TRIPOS>MOLECULE
982_301_2AZR
 22 23 1 0 0
SMALL
USER_CHARGES


@<TRIPOS>ATOM
      1 C1         44.1531   16.9441   -2.1412 C.ar    1  <0>        -0.0429
      2 C2         44.3647   16.8617   -3.5205 C.ar    1  <0>        -0.0481
      3 C3         44.0270   15.7722   -1.4093 C.ar    1  <0>         0.0289
      4 C4         45.9212   16.9248   -6.4184 C.3     1  <0>         0.0935
      5 C5         44.4459   15.5869   -4.1269 C.ar    1  <0>         0.0383
      6 C6         44.6595   15.1554   -5.4847 C.2     1  <0>         0.1018
      7 C7         44.6565   13.7710   -5.5857 C.2     1  <0>         0.0670
      8 C8         44.3036   14.4924   -3.2654 C.ar    1  <0>         0.1113
      9 C9         46.3307   17.4584   -7.8028 C.2     1  <0>         0.0679
     10 C10        44.8560   12.8942   -6.8705 C.2     1  <0>         0.0808
     11 N1         44.0933   14.5250   -1.9273 N.ar    1  <0>        -0.2477
     12 O1         45.7265   17.0142   -8.8092 O.co2   1  <0>        -0.5474
     13 O2         43.8294   12.4069   -7.4349 O.co2   1  <0>        -0.5440
     14 O3         47.2383   18.3153   -7.7893 O.co2   1  <0>        -0.5474
     15 O4         46.0583   12.7464   -7.2386 O.co2   1  <0>        -0.5440
     16 O5         44.8243   16.0063   -6.5473 O.3     1  <0>        -0.3371
     17 S1         44.4238   13.0003   -4.0722 S.3     1  <0>        -0.0649
     18 H1         44.0888   17.9052   -1.6528 H       1  <0>         0.0633
     19 H2         44.4647   17.7583   -4.1142 H       1  <0>         0.0626
     20 H3         43.8635   15.8631   -0.3456 H       1  <0>         0.0830
     21 H4         46.7770   16.4060   -5.9620 H       1  <0>         0.0627
     22 H5         45.6156   17.7675   -5.7808 H       1  <0>         0.0627
@<TRIPOS>BOND
     1     1     2   ar
     2     1     3   ar
     3     2     5   ar
     4     3    11   ar
     5     4     9    1
     6     4    16    1
     7     5     6    1
     8     5     8   ar
     9     6     7    2
    10     6    16    1
    11     7    10    1
    12     7    17    1
    13     8    11   ar
    14     8    17    1
    15     9    12    1
    16     9    14    2
    17    10    13    1
    18    10    15    2
    19     1    18    1
    20     2    19    1
    21     3    20    1
    22     4    21    1
    23     4    22    1
@<TRIPOS>SUBSTRUCTURE
     1 <0>         1 TEMP              0 ****  ****    0 ROOT

