
##########                                Name:        FMS_500_1BCD
##########                    Molecular_Weight:             149.094
##########                DOCK_Rotatable_Bonds:                   2
##########                       Formal_Charge:         0.000199914
##########                     HBond_Acceptors:                   7
##########                        HBond_Donors:                   2
##########                         Heavy_Atoms:                   8
##########                            HA_RMSDs:               2.936
##########                            HA_RMSDh:               2.683
##########                            HA_RMSDm:               2.683
##########                          Grid_Score:          -23.444811
##########                     Grid_vdw_energy:          -22.163279
##########                      Grid_es_energy:           -1.281532
##########           Internal_energy_repulsive:            0.000307

@<TRIPOS>MOLECULE
FMS_500_1BCD
 10 9 1 0 0
SMALL
USER_CHARGES


@<TRIPOS>ATOM
      1 C1         -5.0220    1.4162   16.0674 C.3     1  <0>         0.5379
      2 N1         -6.3983    1.0328   18.4699 N.pl3   1  <0>        -0.2576
      3 O1         -7.5857    0.8688   16.3351 O.2     1  <0>        -0.1471
      4 O2         -6.7330    3.0730   16.9959 O.2     1  <0>        -0.1471
      5 F1         -4.0252    1.6291   16.8442 F       1  <0>        -0.1491
      6 F2         -4.9894    2.4622   15.1881 F       1  <0>        -0.1491
      7 F3         -5.0115    0.2574   15.4956 F       1  <0>        -0.1491
      8 S1         -6.5141    1.6227   16.9674 S.o2    1  <0>         0.1346
      9 H1         -7.2173    1.2779   18.9888 H       1  <0>         0.1634
     10 H2         -6.3139    0.0371   18.4314 H       1  <0>         0.1634
@<TRIPOS>BOND
     1     1     5    1
     2     1     6    1
     3     1     7    1
     4     1     8    1
     5     2     8    1
     6     3     8    2
     7     4     8    2
     8     2     9    1
     9     2    10    1
@<TRIPOS>SUBSTRUCTURE
     1 <0>         1 TEMP              0 ****  ****    0 ROOT

