
##########                                Name:        FMS_500_1BCD
##########                    Molecular_Weight:             149.094
##########                DOCK_Rotatable_Bonds:                   2
##########                       Formal_Charge:         0.000199914
##########                     HBond_Acceptors:                   7
##########                        HBond_Donors:                   2
##########                         Heavy_Atoms:                   8
##########                            HA_RMSDs:               2.944
##########                            HA_RMSDh:               2.678
##########                            HA_RMSDm:               2.678
##########                          Grid_Score:          -22.399586
##########                     Grid_vdw_energy:          -20.850485
##########                      Grid_es_energy:           -1.549101
##########           Internal_energy_repulsive:            0.000212

@<TRIPOS>MOLECULE
FMS_500_1BCD
 10 9 1 0 0
SMALL
USER_CHARGES


@<TRIPOS>ATOM
      1 C1         -5.1332    2.0212   15.7465 C.3     1  <0>         0.5379
      2 N1         -5.8254    0.8032   18.1654 N.pl3   1  <0>        -0.2576
      3 O1         -7.3954    0.7825   16.2868 O.2     1  <0>        -0.1471
      4 O2         -6.9075    2.9458   17.3376 O.2     1  <0>        -0.1471
      5 F1         -4.0525    2.3026   16.3752 F       1  <0>        -0.1491
      6 F2         -5.5114    3.2085   15.1848 F       1  <0>        -0.1491
      7 F3         -5.0157    1.0578   14.8934 F       1  <0>        -0.1491
      8 S1         -6.3961    1.6411   16.9039 S.o2    1  <0>         0.1346
      9 H1         -6.4681    0.8697   18.9286 H       1  <0>         0.1634
     10 H2         -5.7147   -0.1562   17.9056 H       1  <0>         0.1634
@<TRIPOS>BOND
     1     1     5    1
     2     1     6    1
     3     1     7    1
     4     1     8    1
     5     2     8    1
     6     3     8    2
     7     4     8    2
     8     2     9    1
     9     2    10    1
@<TRIPOS>SUBSTRUCTURE
     1 <0>         1 TEMP              0 ****  ****    0 ROOT

