
##########                                Name:        FMS_500_1BCD
##########                    Molecular_Weight:             149.094
##########                DOCK_Rotatable_Bonds:                   2
##########                       Formal_Charge:         0.000199914
##########                     HBond_Acceptors:                   7
##########                        HBond_Donors:                   2
##########                         Heavy_Atoms:                   8
##########                            HA_RMSDs:               2.924
##########                            HA_RMSDh:               2.669
##########                            HA_RMSDm:               2.652
##########                          Grid_Score:          -22.867573
##########                     Grid_vdw_energy:          -21.126835
##########                      Grid_es_energy:           -1.740738
##########           Internal_energy_repulsive:            0.000337

@<TRIPOS>MOLECULE
FMS_500_1BCD
 10 9 1 0 0
SMALL
USER_CHARGES


@<TRIPOS>ATOM
      1 C1         -5.1735    1.7275   15.8109 C.3     1  <0>         0.5379
      2 N1         -5.8493    0.6735   18.3100 N.pl3   1  <0>        -0.2576
      3 O1         -7.5222    0.7696   16.5249 O.2     1  <0>        -0.1471
      4 O2         -6.7356    2.8967   17.4624 O.2     1  <0>        -0.1471
      5 F1         -4.0983    2.1763   16.3447 F       1  <0>        -0.1491
      6 F2         -5.6174    2.7611   15.0345 F       1  <0>        -0.1491
      7 F3         -5.0224    0.6198   15.1629 F       1  <0>        -0.1491
      8 S1         -6.3987    1.5295   17.0513 S.o2    1  <0>         0.1346
      9 H1         -6.5207    0.7006   19.0507 H       1  <0>         0.1634
     10 H2         -5.7013   -0.2748   18.0290 H       1  <0>         0.1634
@<TRIPOS>BOND
     1     1     5    1
     2     1     6    1
     3     1     7    1
     4     1     8    1
     5     2     8    1
     6     3     8    2
     7     4     8    2
     8     2     9    1
     9     2    10    1
@<TRIPOS>SUBSTRUCTURE
     1 <0>         1 TEMP              0 ****  ****    0 ROOT

