
##########                                Name:        FMS_500_1BCD
##########                    Molecular_Weight:             149.094
##########                DOCK_Rotatable_Bonds:                   2
##########                       Formal_Charge:         0.000199914
##########                     HBond_Acceptors:                   7
##########                        HBond_Donors:                   2
##########                         Heavy_Atoms:                   8
##########                            HA_RMSDs:               2.946
##########                            HA_RMSDh:               2.715
##########                            HA_RMSDm:               2.698
##########                          Grid_Score:          -23.290440
##########                     Grid_vdw_energy:          -22.321154
##########                      Grid_es_energy:           -0.969287
##########           Internal_energy_repulsive:            0.000225

@<TRIPOS>MOLECULE
FMS_500_1BCD
 10 9 1 0 0
SMALL
USER_CHARGES


@<TRIPOS>ATOM
      1 C1         -5.0419    1.1818   16.0449 C.3     1  <0>         0.5379
      2 N1         -6.5566    1.0368   18.3897 N.pl3   1  <0>        -0.2576
      3 O1         -7.6562    0.8939   16.2068 O.2     1  <0>        -0.1471
      4 O2         -6.6237    3.0333   16.8224 O.2     1  <0>        -0.1471
      5 F1         -4.0564    1.5876   16.7565 F       1  <0>        -0.1491
      6 F2         -5.0155    1.9926   14.9449 F       1  <0>        -0.1491
      7 F3         -5.0086   -0.0785   15.7612 F       1  <0>        -0.1491
      8 S1         -6.5460    1.5689   16.8614 S.o2    1  <0>         0.1346
      9 H1         -7.2331    1.5506   18.9174 H       1  <0>         0.1634
     10 H2         -6.7921    0.0650   18.4025 H       1  <0>         0.1634
@<TRIPOS>BOND
     1     1     5    1
     2     1     6    1
     3     1     7    1
     4     1     8    1
     5     2     8    1
     6     3     8    2
     7     4     8    2
     8     2     9    1
     9     2    10    1
@<TRIPOS>SUBSTRUCTURE
     1 <0>         1 TEMP              0 ****  ****    0 ROOT

