
##########                                Name:        FMS_500_1BCD
##########                    Molecular_Weight:             149.094
##########                DOCK_Rotatable_Bonds:                   2
##########                       Formal_Charge:         0.000199914
##########                     HBond_Acceptors:                   7
##########                        HBond_Donors:                   2
##########                         Heavy_Atoms:                   8
##########                            HA_RMSDs:               2.944
##########                            HA_RMSDh:               2.641
##########                            HA_RMSDm:               2.641
##########                          Grid_Score:          -21.593475
##########                     Grid_vdw_energy:          -20.058039
##########                      Grid_es_energy:           -1.535437
##########           Internal_energy_repulsive:            0.000458

@<TRIPOS>MOLECULE
FMS_500_1BCD
 10 9 1 0 0
SMALL
USER_CHARGES


@<TRIPOS>ATOM
      1 C1         -5.1076    1.5233   15.8561 C.3     1  <0>         0.5379
      2 N1         -6.3556    0.5436   18.1575 N.pl3   1  <0>        -0.2576
      3 O1         -7.6914    1.1280   16.1906 O.2     1  <0>        -0.1471
      4 O2         -6.5711    2.9537   17.3880 O.2     1  <0>        -0.1471
      5 F1         -4.0718    1.9030   16.5082 F       1  <0>        -0.1491
      6 F2         -5.3160    2.5238   14.9484 F       1  <0>        -0.1491
      7 F3         -4.9985    0.3520   15.3212 F       1  <0>        -0.1491
      8 S1         -6.5075    1.5672   16.9132 S.o2    1  <0>         0.1346
      9 H1         -7.1058    0.6888   18.8027 H       1  <0>         0.1634
     10 H2         -6.3836   -0.3974   17.8202 H       1  <0>         0.1634
@<TRIPOS>BOND
     1     1     5    1
     2     1     6    1
     3     1     7    1
     4     1     8    1
     5     2     8    1
     6     3     8    2
     7     4     8    2
     8     2     9    1
     9     2    10    1
@<TRIPOS>SUBSTRUCTURE
     1 <0>         1 TEMP              0 ****  ****    0 ROOT

