
##########                                Name:        FMS_500_1BCD
##########                    Molecular_Weight:             149.094
##########                DOCK_Rotatable_Bonds:                   2
##########                       Formal_Charge:         0.000199914
##########                     HBond_Acceptors:                   7
##########                        HBond_Donors:                   2
##########                         Heavy_Atoms:                   8
##########                            HA_RMSDs:               2.971
##########                            HA_RMSDh:               2.821
##########                            HA_RMSDm:               2.751
##########                          Grid_Score:          -23.276045
##########                     Grid_vdw_energy:          -22.038013
##########                      Grid_es_energy:           -1.238031
##########           Internal_energy_repulsive:            0.000628

@<TRIPOS>MOLECULE
FMS_500_1BCD
 10 9 1 0 0
SMALL
USER_CHARGES


@<TRIPOS>ATOM
      1 C1         -4.9446    0.9946   15.9765 C.3     1  <0>         0.5379
      2 N1         -5.9113    1.4193   18.5647 N.pl3   1  <0>        -0.2576
      3 O1         -7.4021    0.5603   16.8228 O.2     1  <0>        -0.1471
      4 O2         -6.5820    2.8610   16.5851 O.2     1  <0>        -0.1471
      5 F1         -3.8430    1.2994   16.5561 F       1  <0>        -0.1491
      6 F2         -4.9949    1.8292   14.8952 F       1  <0>        -0.1491
      7 F3         -5.0561   -0.2562   15.6720 F       1  <0>        -0.1491
      8 S1         -6.2896    1.4824   16.9924 S.o2    1  <0>         0.1346
      9 H1         -6.7325    1.5796   19.1123 H       1  <0>         0.1634
     10 H2         -5.5370    0.5177   18.7814 H       1  <0>         0.1634
@<TRIPOS>BOND
     1     1     5    1
     2     1     6    1
     3     1     7    1
     4     1     8    1
     5     2     8    1
     6     3     8    2
     7     4     8    2
     8     2     9    1
     9     2    10    1
@<TRIPOS>SUBSTRUCTURE
     1 <0>         1 TEMP              0 ****  ****    0 ROOT

