
##########                                Name:        FMS_500_1BCD
##########                    Molecular_Weight:             149.094
##########                DOCK_Rotatable_Bonds:                   2
##########                       Formal_Charge:         0.000199914
##########                     HBond_Acceptors:                   7
##########                        HBond_Donors:                   2
##########                         Heavy_Atoms:                   8
##########                            HA_RMSDs:               2.862
##########                            HA_RMSDh:               2.413
##########                            HA_RMSDm:               2.365
##########                          Grid_Score:          -21.813490
##########                     Grid_vdw_energy:          -20.368151
##########                      Grid_es_energy:           -1.445339
##########           Internal_energy_repulsive:            0.001565

@<TRIPOS>MOLECULE
FMS_500_1BCD
 10 9 1 0 0
SMALL
USER_CHARGES


@<TRIPOS>ATOM
      1 C1         -5.1402    2.0592   15.9252 C.3     1  <0>         0.5379
      2 N1         -5.8203   -0.2462   17.3519 N.pl3   1  <0>        -0.2576
      3 O1         -7.5752    1.2380   16.5083 O.2     1  <0>        -0.1471
      4 O2         -6.1179    2.0956   18.2868 O.2     1  <0>        -0.1471
      5 F1         -4.0297    2.3178   16.5103 F       1  <0>        -0.1491
      6 F2         -5.6847    3.2895   15.6840 F       1  <0>        -0.1491
      7 F3         -5.0249    1.3265   14.8671 F       1  <0>        -0.1491
      8 S1         -6.2321    1.2923   17.0647 S.o2    1  <0>         0.1346
      9 H1         -6.5970   -0.7299   17.7554 H       1  <0>         0.1634
     10 H2         -5.5625   -0.6881   16.4926 H       1  <0>         0.1634
@<TRIPOS>BOND
     1     1     5    1
     2     1     6    1
     3     1     7    1
     4     1     8    1
     5     2     8    1
     6     3     8    2
     7     4     8    2
     8     2     9    1
     9     2    10    1
@<TRIPOS>SUBSTRUCTURE
     1 <0>         1 TEMP              0 ****  ****    0 ROOT

