
##########                                Name:        FMS_500_1BCD
##########                    Molecular_Weight:             149.094
##########                DOCK_Rotatable_Bonds:                   2
##########                       Formal_Charge:         0.000199914
##########                     HBond_Acceptors:                   7
##########                        HBond_Donors:                   2
##########                         Heavy_Atoms:                   8
##########                            HA_RMSDs:               2.946
##########                            HA_RMSDh:               2.724
##########                            HA_RMSDm:               2.684
##########                          Grid_Score:          -22.600914
##########                     Grid_vdw_energy:          -21.681183
##########                      Grid_es_energy:           -0.919732
##########           Internal_energy_repulsive:            0.000285

@<TRIPOS>MOLECULE
FMS_500_1BCD
 10 9 1 0 0
SMALL
USER_CHARGES


@<TRIPOS>ATOM
      1 C1         -5.1510    1.0698   16.1519 C.3     1  <0>         0.5379
      2 N1         -6.6181    1.3416   18.5156 N.pl3   1  <0>        -0.2576
      3 O1         -7.7720    0.9436   16.3932 O.2     1  <0>        -0.1471
      4 O2         -6.6225    3.0930   16.6773 O.2     1  <0>        -0.1471
      5 F1         -4.1394    1.3739   16.8775 F       1  <0>        -0.1491
      6 F2         -5.0079    1.8475   15.0370 F       1  <0>        -0.1491
      7 F3         -5.2595   -0.1917   15.8939 F       1  <0>        -0.1491
      8 S1         -6.6158    1.6474   16.9264 S.o2    1  <0>         0.1346
      9 H1         -7.3780    1.8273   18.9479 H       1  <0>         0.1634
     10 H2         -6.7228    0.3585   18.6656 H       1  <0>         0.1634
@<TRIPOS>BOND
     1     1     5    1
     2     1     6    1
     3     1     7    1
     4     1     8    1
     5     2     8    1
     6     3     8    2
     7     4     8    2
     8     2     9    1
     9     2    10    1
@<TRIPOS>SUBSTRUCTURE
     1 <0>         1 TEMP              0 ****  ****    0 ROOT

