
##########                                Name:        FMS_500_1BCD
##########                    Molecular_Weight:             149.094
##########                DOCK_Rotatable_Bonds:                   2
##########                       Formal_Charge:         0.000199914
##########                     HBond_Acceptors:                   7
##########                        HBond_Donors:                   2
##########                         Heavy_Atoms:                   8
##########                            HA_RMSDs:               0.544
##########                            HA_RMSDh:               0.544
##########                            HA_RMSDm:               0.544
##########                          Grid_Score:          -21.651752
##########                     Grid_vdw_energy:          -20.241493
##########                      Grid_es_energy:           -1.410260
##########           Internal_energy_repulsive:            0.000761

@<TRIPOS>MOLECULE
FMS_500_1BCD
 10 9 1 0 0
SMALL
USER_CHARGES


@<TRIPOS>ATOM
      1 C1         -6.4303    1.3556   17.4126 C.3     1  <0>         0.5379
      2 N1         -5.0175   -0.0565   15.4573 N.pl3   1  <0>        -0.2576
      3 O1         -3.8876    1.6582   16.7905 O.2     1  <0>        -0.1471
      4 O2         -5.6241    2.3978   15.2221 O.2     1  <0>        -0.1471
      5 F1         -7.5502    1.0444   16.8728 F       1  <0>        -0.1491
      6 F2         -6.5904    2.6612   17.7843 F       1  <0>        -0.1491
      7 F3         -6.0748    0.5799   18.3830 F       1  <0>        -0.1491
      8 S1         -5.1798    1.3814   16.1820 S.o2    1  <0>         0.1346
      9 H1         -4.1882   -0.0570   14.8984 H       1  <0>         0.1634
     10 H2         -4.9522   -0.7738   16.1510 H       1  <0>         0.1634
@<TRIPOS>BOND
     1     1     5    1
     2     1     6    1
     3     1     7    1
     4     1     8    1
     5     2     8    1
     6     3     8    2
     7     4     8    2
     8     2     9    1
     9     2    10    1
@<TRIPOS>SUBSTRUCTURE
     1 <0>         1 TEMP              0 ****  ****    0 ROOT

