
##########                                Name:      PU2_A1224_1UYG
##########                    Molecular_Weight:             303.296
##########                DOCK_Rotatable_Bonds:                   4
##########                       Formal_Charge:          8.9407e-08
##########                     HBond_Acceptors:                   8
##########                        HBond_Donors:                   3
##########                         Heavy_Atoms:                  22
##########                            HA_RMSDs:               0.142
##########                            HA_RMSDh:               0.142
##########                            HA_RMSDm:               0.142
##########                          Grid_Score:          -49.066093
##########                     Grid_vdw_energy:          -47.591587
##########                      Grid_es_energy:           -1.474506
##########           Internal_energy_repulsive:            9.079418

@<TRIPOS>MOLECULE
PU2_A1224_1UYG
 36 38 1 0 0
SMALL
USER_CHARGES


@<TRIPOS>ATOM
      1 C1          5.1753   16.0142   25.7166 C.3     1  <0>         0.0430
      2 C2          7.7527   10.0877   22.7748 C.3     1  <0>         0.0430
      3 C3          6.2894   13.7062   24.2897 C.ar    1  <0>        -0.0292
      4 C4          6.7821   12.5670   23.6637 C.ar    1  <0>        -0.0290
      5 C5          4.0277   12.7731   24.2563 C.ar    1  <0>        -0.0257
      6 C6          3.5977   10.5369   23.2275 C.3     1  <0>         0.0311
      7 C7          4.9170   13.7988   24.5749 C.ar    1  <0>         0.0762
      8 C8          5.8859   11.5623   23.3513 C.ar    1  <0>         0.0795
      9 C9          4.5304   11.6629   23.6193 C.ar    1  <0>        -0.0079
     10 C10         2.3261   10.5218   24.0161 C.2     1  <0>         0.1063
     11 C11         0.3459   10.7887   24.7298 C.ar    1  <0>         0.1172
     12 C12        -1.0065   10.9705   24.9535 C.ar    1  <0>         0.1458
     13 C13         1.0931   10.2068   25.6880 C.ar    1  <0>         0.1832
     14 C14        -0.6857   10.0890   27.0045 C.ar    1  <0>         0.3128
     15 N1         -1.8919   11.5595   24.0051 N.pl3   1  <0>        -0.3415
     16 N2          1.1105   11.0020   23.6613 N.pl3   1  <0>        -0.2970
     17 N3          2.3105   10.0534   25.2725 N.2     1  <0>        -0.2151
     18 N4         -1.5152   10.6386   26.1260 N.ar    1  <0>        -0.1854
     19 N5          0.5974    9.8425   26.8496 N.ar    1  <0>        -0.1808
     20 O1          4.3648   14.9311   25.2426 O.3     1  <0>        -0.3479
     21 O2          6.3455   10.4042   22.7305 O.3     1  <0>        -0.3476
     22 F1         -1.3015    9.6847   28.4336 F       1  <0>        -0.1610
     23 H1          4.5351   16.7697   26.1956 H       1  <0>         0.0529
     24 H2          5.9036   15.6341   26.4482 H       1  <0>         0.0529
     25 H3          5.7096   16.4700   24.8700 H       1  <0>         0.0529
     26 H4          7.9342    9.1452   22.2375 H       1  <0>         0.0529
     27 H5          8.3257   10.8972   22.2988 H       1  <0>         0.0529
     28 H6          8.0713    9.9796   23.8221 H       1  <0>         0.0529
     29 H7          6.9562   14.5134   24.5546 H       1  <0>         0.0644
     30 H8          7.8317   12.4702   23.4288 H       1  <0>         0.0644
     31 H9          2.9786   12.8482   24.5017 H       1  <0>         0.0647
     32 H10         3.3419   10.6562   22.1643 H       1  <0>         0.0390
     33 H11         4.1191    9.5834   23.3970 H       1  <0>         0.0390
     34 H12        -2.8070   11.6307   24.4020 H       1  <0>         0.1438
     35 H13        -1.5618   12.4718   23.7630 H       1  <0>         0.1438
     36 H14         0.8469   11.4220   22.7929 H       1  <0>         0.1535
@<TRIPOS>BOND
     1     1    20    1
     2     2    21    1
     3     3     4   ar
     4     3     7   ar
     5     4     8   ar
     6     5     7   ar
     7     5     9   ar
     8     6     9    1
     9     6    10    1
    10     7    20    1
    11     8     9   ar
    12     8    21    1
    13    10    16    1
    14    10    17    2
    15    11    12   ar
    16    11    13   ar
    17    11    16    1
    18    12    15    1
    19    12    18   ar
    20    13    17    1
    21    13    19   ar
    22    14    18   ar
    23    14    19   ar
    24    14    22    1
    25     1    23    1
    26     1    24    1
    27     1    25    1
    28     2    26    1
    29     2    27    1
    30     2    28    1
    31     3    29    1
    32     4    30    1
    33     5    31    1
    34     6    32    1
    35     6    33    1
    36    15    34    1
    37    15    35    1
    38    16    36    1
@<TRIPOS>SUBSTRUCTURE
     1 <0>         1 TEMP              0 ****  ****    0 ROOT

