Z240678214
 OpenBabel06102415192D

 25 27  0  0  0  0  0  0  0  0999 V2000
   11.3196  -15.6896    0.0000 O   0  0  0  0  0  0  0  0  0  0  0  0
   12.6187  -14.9396    0.0000 C   0  0  0  0  0  0  0  0  0  0  0  0
   13.9178  -15.6896    0.0000 N   0  0  0  0  0  0  0  0  0  0  0  0
   13.9178  -17.1896    0.0000 C   0  0  0  0  0  0  0  0  0  0  0  0
   15.2169  -17.9396    0.0000 C   0  0  0  0  0  0  0  0  0  0  0  0
   15.2169  -19.4396    0.0000 C   0  0  0  0  0  0  0  0  0  0  0  0
   13.9178  -20.1896    0.0000 C   0  0  0  0  0  0  0  0  0  0  0  0
   12.6187  -19.4396    0.0000 C   0  0  0  0  0  0  0  0  0  0  0  0
   12.6187  -17.9396    0.0000 C   0  0  0  0  0  0  0  0  0  0  0  0
   12.6187  -13.4396    0.0000 N   0  0  0  0  0  0  0  0  0  0  0  0
   11.3196  -12.6896    0.0000 C   0  0  0  0  0  0  0  0  0  0  0  0
   10.0207  -13.4396    0.0000 C   0  0  0  0  0  0  0  0  0  0  0  0
    8.7216  -12.6896    0.0000 C   0  0  0  0  0  0  0  0  0  0  0  0
    8.7216  -11.1896    0.0000 C   0  0  0  0  0  0  0  0  0  0  0  0
   10.0207  -10.4396    0.0000 C   0  0  0  0  0  0  0  0  0  0  0  0
   10.0207   -8.9396    0.0000 N   0  0  0  0  0  0  0  0  0  0  0  0
    8.7216   -8.1896    0.0000 C   0  0  0  0  0  0  0  0  0  0  0  0
    7.4227   -8.9396    0.0000 O   0  0  0  0  0  0  0  0  0  0  0  0
    8.7216   -6.6896    0.0000 C   0  0  0  0  0  0  0  0  0  0  0  0
    7.4227   -5.9396    0.0000 C   0  0  0  0  0  0  0  0  0  0  0  0
    7.4227   -4.4396    0.0000 C   0  0  0  0  0  0  0  0  0  0  0  0
    8.7216   -3.6896    0.0000 C   0  0  0  0  0  0  0  0  0  0  0  0
   10.0207   -4.4396    0.0000 C   0  0  0  0  0  0  0  0  0  0  0  0
   10.0207   -5.9396    0.0000 C   0  0  0  0  0  0  0  0  0  0  0  0
   11.3196  -11.1896    0.0000 C   0  0  0  0  0  0  0  0  0  0  0  0
  1  2  2  0  0  0  0
  2  3  1  0  0  0  0
  2 10  1  0  0  0  0
  3  4  1  0  0  0  0
  4  5  2  0  0  0  0
  4  9  1  0  0  0  0
  5  6  1  0  0  0  0
  6  7  2  0  0  0  0
  7  8  1  0  0  0  0
  8  9  2  0  0  0  0
 10 11  1  0  0  0  0
 11 12  2  0  0  0  0
 11 25  1  0  0  0  0
 12 13  1  0  0  0  0
 13 14  2  0  0  0  0
 14 15  1  0  0  0  0
 15 16  1  0  0  0  0
 15 25  2  0  0  0  0
 16 17  1  0  0  0  0
 17 18  2  0  0  0  0
 17 19  1  0  0  0  0
 19 20  2  0  0  0  0
 19 24  1  0  0  0  0
 20 21  1  0  0  0  0
 21 22  2  0  0  0  0
 22 23  1  0  0  0  0
 23 24  2  0  0  0  0
M  END
$$$$
