Z254577874
 OpenBabel06102415212D

 25 27  0  0  0  0  0  0  0  0999 V2000
   24.5662  -19.4040    0.0000 O   0  0  0  0  0  0  0  0  0  0  0  0
   23.2671  -18.6540    0.0000 C   0  0  0  0  0  0  0  0  0  0  0  0
   21.9680  -19.4040    0.0000 N   0  0  0  0  0  0  0  0  0  0  0  0
   21.9680  -20.9039    0.0000 C   0  0  0  0  0  0  0  0  0  0  0  0
   23.2671  -21.6539    0.0000 C   0  0  0  0  0  0  0  0  0  0  0  0
   23.2671  -23.1539    0.0000 C   0  0  0  0  0  0  0  0  0  0  0  0
   21.9680  -23.9039    0.0000 C   0  0  0  0  0  0  0  0  0  0  0  0
   20.6689  -23.1539    0.0000 C   0  0  0  0  0  0  0  0  0  0  0  0
   20.6689  -21.6539    0.0000 C   0  0  0  0  0  0  0  0  0  0  0  0
   23.2671  -17.1540    0.0000 N   0  0  0  0  0  0  0  0  0  0  0  0
   24.5662  -16.4040    0.0000 C   0  0  0  0  0  0  0  0  0  0  0  0
   24.5662  -14.9040    0.0000 C   0  0  0  0  0  0  0  0  0  0  0  0
   25.8651  -14.1540    0.0000 C   0  0  0  0  0  0  0  0  0  0  0  0
   27.1641  -14.9040    0.0000 C   0  0  0  0  0  0  0  0  0  0  0  0
   28.4632  -14.1540    0.0000 N   0  0  0  0  0  0  0  0  0  0  0  0
   28.4632  -12.6540    0.0000 C   0  0  0  0  0  0  0  0  0  0  0  0
   27.1641  -11.9040    0.0000 O   0  0  0  0  0  0  0  0  0  0  0  0
   29.7621  -11.9040    0.0000 C   0  0  0  0  0  0  0  0  0  0  0  0
   29.7621  -10.4040    0.0000 C   0  0  0  0  0  0  0  0  0  0  0  0
   31.0612   -9.6540    0.0000 C   0  0  0  0  0  0  0  0  0  0  0  0
   32.3603  -10.4040    0.0000 C   0  0  0  0  0  0  0  0  0  0  0  0
   32.3603  -11.9040    0.0000 C   0  0  0  0  0  0  0  0  0  0  0  0
   31.0612  -12.6540    0.0000 C   0  0  0  0  0  0  0  0  0  0  0  0
   27.1641  -16.4040    0.0000 C   0  0  0  0  0  0  0  0  0  0  0  0
   25.8651  -17.1540    0.0000 C   0  0  0  0  0  0  0  0  0  0  0  0
  1  2  2  0  0  0  0
  2  3  1  0  0  0  0
  2 10  1  0  0  0  0
  3  4  1  0  0  0  0
  4  5  2  0  0  0  0
  4  9  1  0  0  0  0
  5  6  1  0  0  0  0
  6  7  2  0  0  0  0
  7  8  1  0  0  0  0
  8  9  2  0  0  0  0
 10 11  1  0  0  0  0
 11 12  2  0  0  0  0
 11 25  1  0  0  0  0
 12 13  1  0  0  0  0
 13 14  2  0  0  0  0
 14 15  1  0  0  0  0
 14 24  1  0  0  0  0
 15 16  1  0  0  0  0
 16 17  2  0  0  0  0
 16 18  1  0  0  0  0
 18 19  2  0  0  0  0
 18 23  1  0  0  0  0
 19 20  1  0  0  0  0
 20 21  2  0  0  0  0
 21 22  1  0  0  0  0
 22 23  2  0  0  0  0
 24 25  2  0  0  0  0
M  END
$$$$
