Z26395441
 OpenBabel06102415162D

 21 23  0  0  0  0  0  0  0  0999 V2000
    7.4229  -16.1786    0.0000 Cl  0  0  0  0  0  0  0  0  0  0  0  0
    8.7220  -15.4286    0.0000 C   0  0  0  0  0  0  0  0  0  0  0  0
    8.7220  -13.9286    0.0000 C   0  0  0  0  0  0  0  0  0  0  0  0
   10.0209  -13.1786    0.0000 C   0  0  0  0  0  0  0  0  0  0  0  0
   11.3200  -13.9286    0.0000 C   0  0  0  0  0  0  0  0  0  0  0  0
   11.3200  -15.4286    0.0000 C   0  0  0  0  0  0  0  0  0  0  0  0
   10.0209  -16.1786    0.0000 C   0  0  0  0  0  0  0  0  0  0  0  0
   12.6191  -13.1786    0.0000 C   0  0  0  0  0  0  0  0  0  0  0  0
   12.6191  -11.6787    0.0000 O   0  0  0  0  0  0  0  0  0  0  0  0
   13.9182  -13.9286    0.0000 N   0  0  0  0  0  0  0  0  0  0  0  0
   15.2172  -13.1786    0.0000 C   0  0  0  0  0  0  0  0  0  0  0  0
   16.5163  -13.9286    0.0000 C   0  0  0  0  0  0  0  0  0  0  0  0
   17.8154  -13.1786    0.0000 C   0  0  0  0  0  0  0  0  0  0  0  0
   17.9721  -11.6871    0.0000 C   0  0  0  0  0  0  0  0  0  0  0  0
   19.4394  -11.3751    0.0000 N   0  0  0  0  0  0  0  0  0  0  0  0
   20.1894  -12.6740    0.0000 C   0  0  0  0  0  0  0  0  0  0  0  0
   21.6567  -12.9858    0.0000 C   0  0  0  0  0  0  0  0  0  0  0  0
   22.1202  -14.4124    0.0000 C   0  0  0  0  0  0  0  0  0  0  0  0
   21.1165  -15.5272    0.0000 C   0  0  0  0  0  0  0  0  0  0  0  0
   19.6492  -15.2153    0.0000 C   0  0  0  0  0  0  0  0  0  0  0  0
   19.1858  -13.7888    0.0000 C   0  0  0  0  0  0  0  0  0  0  0  0
  1  2  1  0  0  0  0
  2  3  2  0  0  0  0
  2  7  1  0  0  0  0
  3  4  1  0  0  0  0
  4  5  2  0  0  0  0
  5  6  1  0  0  0  0
  5  8  1  0  0  0  0
  6  7  2  0  0  0  0
  8  9  2  0  0  0  0
  8 10  1  0  0  0  0
 10 11  1  0  0  0  0
 11 12  1  0  0  0  0
 12 13  1  0  0  0  0
 13 14  2  0  0  0  0
 13 21  1  0  0  0  0
 14 15  1  0  0  0  0
 15 16  1  0  0  0  0
 16 17  2  0  0  0  0
 16 21  1  0  0  0  0
 17 18  1  0  0  0  0
 18 19  2  0  0  0  0
 19 20  1  0  0  0  0
 20 21  2  0  0  0  0
M  END
$$$$
