Z26395518
 OpenBabel06102415172D

 21 23  0  0  0  0  0  0  0  0999 V2000
    2.2266  -14.4498    0.0000 C   0  0  0  0  0  0  0  0  0  0  0  0
    3.5257  -13.6998    0.0000 C   0  0  0  0  0  0  0  0  0  0  0  0
    3.5257  -12.1997    0.0000 C   0  0  0  0  0  0  0  0  0  0  0  0
    4.8246  -11.4497    0.0000 C   0  0  0  0  0  0  0  0  0  0  0  0
    6.1237  -12.1997    0.0000 C   0  0  0  0  0  0  0  0  0  0  0  0
    6.1237  -13.6998    0.0000 C   0  0  0  0  0  0  0  0  0  0  0  0
    4.8246  -14.4498    0.0000 C   0  0  0  0  0  0  0  0  0  0  0  0
    7.4229  -11.4497    0.0000 C   0  0  0  0  0  0  0  0  0  0  0  0
    7.4229   -9.9499    0.0000 O   0  0  0  0  0  0  0  0  0  0  0  0
    8.7220  -12.1997    0.0000 N   0  0  0  0  0  0  0  0  0  0  0  0
   10.0209  -11.4497    0.0000 C   0  0  0  0  0  0  0  0  0  0  0  0
   11.3200  -12.1997    0.0000 C   0  0  0  0  0  0  0  0  0  0  0  0
   12.6191  -11.4497    0.0000 C   0  0  0  0  0  0  0  0  0  0  0  0
   12.7759   -9.9582    0.0000 C   0  0  0  0  0  0  0  0  0  0  0  0
   14.2432   -9.6462    0.0000 N   0  0  0  0  0  0  0  0  0  0  0  0
   14.9932  -10.9452    0.0000 C   0  0  0  0  0  0  0  0  0  0  0  0
   16.4605  -11.2570    0.0000 C   0  0  0  0  0  0  0  0  0  0  0  0
   16.9239  -12.6836    0.0000 C   0  0  0  0  0  0  0  0  0  0  0  0
   15.9203  -13.7983    0.0000 C   0  0  0  0  0  0  0  0  0  0  0  0
   14.4530  -13.4865    0.0000 C   0  0  0  0  0  0  0  0  0  0  0  0
   13.9895  -12.0599    0.0000 C   0  0  0  0  0  0  0  0  0  0  0  0
  1  2  1  0  0  0  0
  2  3  2  0  0  0  0
  2  7  1  0  0  0  0
  3  4  1  0  0  0  0
  4  5  2  0  0  0  0
  5  6  1  0  0  0  0
  5  8  1  0  0  0  0
  6  7  2  0  0  0  0
  8  9  2  0  0  0  0
  8 10  1  0  0  0  0
 10 11  1  0  0  0  0
 11 12  1  0  0  0  0
 12 13  1  0  0  0  0
 13 14  2  0  0  0  0
 13 21  1  0  0  0  0
 14 15  1  0  0  0  0
 15 16  1  0  0  0  0
 16 17  2  0  0  0  0
 16 21  1  0  0  0  0
 17 18  1  0  0  0  0
 18 19  2  0  0  0  0
 19 20  1  0  0  0  0
 20 21  2  0  0  0  0
M  END
$$$$
