Z26395449
 OpenBabel06102415222D

 25 28  0  0  0  0  0  0  0  0999 V2000
   10.9515  -13.4407    0.0000 O   0  0  0  0  0  0  0  0  0  0  0  0
    9.4844  -13.7525    0.0000 C   0  0  0  0  0  0  0  0  0  0  0  0
    9.0208  -15.1790    0.0000 C   0  0  0  0  0  0  0  0  0  0  0  0
    7.5535  -15.4910    0.0000 C   0  0  0  0  0  0  0  0  0  0  0  0
    7.0900  -16.9176    0.0000 C   0  0  0  0  0  0  0  0  0  0  0  0
    5.6228  -17.2294    0.0000 C   0  0  0  0  0  0  0  0  0  0  0  0
    4.6191  -16.1147    0.0000 C   0  0  0  0  0  0  0  0  0  0  0  0
    5.0826  -14.6881    0.0000 C   0  0  0  0  0  0  0  0  0  0  0  0
    6.5499  -14.3761    0.0000 C   0  0  0  0  0  0  0  0  0  0  0  0
    7.0135  -12.9496    0.0000 C   0  0  0  0  0  0  0  0  0  0  0  0
    8.4806  -12.6377    0.0000 C   0  0  0  0  0  0  0  0  0  0  0  0
    8.9442  -11.2112    0.0000 C   0  0  0  0  0  0  0  0  0  0  0  0
    7.9404  -10.0964    0.0000 O   0  0  0  0  0  0  0  0  0  0  0  0
   10.4113  -10.8992    0.0000 N   0  0  0  0  0  0  0  0  0  0  0  0
   10.8750   -9.4726    0.0000 C   0  0  0  0  0  0  0  0  0  0  0  0
   12.3423   -9.1608    0.0000 C   0  0  0  0  0  0  0  0  0  0  0  0
   12.8057   -7.7342    0.0000 C   0  0  0  0  0  0  0  0  0  0  0  0
   11.9241   -6.5206    0.0000 C   0  0  0  0  0  0  0  0  0  0  0  0
   12.8057   -5.3071    0.0000 N   0  0  0  0  0  0  0  0  0  0  0  0
   14.2323   -5.7706    0.0000 C   0  0  0  0  0  0  0  0  0  0  0  0
   15.5314   -5.0206    0.0000 C   0  0  0  0  0  0  0  0  0  0  0  0
   16.8303   -5.7706    0.0000 C   0  0  0  0  0  0  0  0  0  0  0  0
   16.8303   -7.2706    0.0000 C   0  0  0  0  0  0  0  0  0  0  0  0
   15.5314   -8.0206    0.0000 C   0  0  0  0  0  0  0  0  0  0  0  0
   14.2323   -7.2706    0.0000 C   0  0  0  0  0  0  0  0  0  0  0  0
  1  2  1  0  0  0  0
  2  3  2  0  0  0  0
  2 11  1  0  0  0  0
  3  4  1  0  0  0  0
  4  5  2  0  0  0  0
  4  9  1  0  0  0  0
  5  6  1  0  0  0  0
  6  7  2  0  0  0  0
  7  8  1  0  0  0  0
  8  9  2  0  0  0  0
  9 10  1  0  0  0  0
 10 11  2  0  0  0  0
 11 12  1  0  0  0  0
 12 13  2  0  0  0  0
 12 14  1  0  0  0  0
 14 15  1  0  0  0  0
 15 16  1  0  0  0  0
 16 17  1  0  0  0  0
 17 18  2  0  0  0  0
 17 25  1  0  0  0  0
 18 19  1  0  0  0  0
 19 20  1  0  0  0  0
 20 21  2  0  0  0  0
 20 25  1  0  0  0  0
 21 22  1  0  0  0  0
 22 23  2  0  0  0  0
 23 24  1  0  0  0  0
 24 25  2  0  0  0  0
M  END
$$$$
