Z31269192
 OpenBabel06102415202D

 30 34  0  0  0  0  0  0  0  0999 V2000
   18.6672  -19.3751    0.0000 C   0  0  0  0  0  0  0  0  0  0  0  0
   17.3683  -18.6251    0.0000 O   0  0  0  0  0  0  0  0  0  0  0  0
   17.3683  -17.1251    0.0000 C   0  0  0  0  0  0  0  0  0  0  0  0
   16.0692  -16.3751    0.0000 C   0  0  0  0  0  0  0  0  0  0  0  0
   16.0692  -14.8750    0.0000 C   0  0  0  0  0  0  0  0  0  0  0  0
   17.3683  -14.1250    0.0000 C   0  0  0  0  0  0  0  0  0  0  0  0
   18.6672  -14.8750    0.0000 C   0  0  0  0  0  0  0  0  0  0  0  0
   18.6672  -16.3751    0.0000 C   0  0  0  0  0  0  0  0  0  0  0  0
   17.3683  -12.6250    0.0000 N   0  0  0  0  0  0  0  0  0  0  0  0
   16.0692  -11.8750    0.0000 C   0  0  0  0  0  0  0  0  0  0  0  0
   16.0692  -10.3750    0.0000 C   0  0  0  0  0  0  0  0  0  0  0  0
   17.3683   -9.6250    0.0000 N   0  0  0  0  0  0  0  0  0  0  0  0
   18.6672  -10.3750    0.0000 C   0  0  0  0  0  0  0  0  0  0  0  0
   18.6672  -11.8750    0.0000 C   0  0  0  0  0  0  0  0  0  0  0  0
   17.3683   -8.1250    0.0000 C   0  0  0  0  0  0  0  0  0  0  0  0
   16.0692   -7.3750    0.0000 N   0  0  0  0  0  0  0  0  0  0  0  0
   16.0692   -5.8749    0.0000 C   0  0  0  0  0  0  0  0  0  0  0  0
   17.3683   -5.1249    0.0000 N   0  0  0  0  0  0  0  0  0  0  0  0
   18.6672   -5.8749    0.0000 C   0  0  0  0  0  0  0  0  0  0  0  0
   19.9663   -5.1249    0.0000 C   0  0  0  0  0  0  0  0  0  0  0  0
   21.2654   -5.8749    0.0000 C   0  0  0  0  0  0  0  0  0  0  0  0
   21.2654   -7.3750    0.0000 C   0  0  0  0  0  0  0  0  0  0  0  0
   19.9663   -8.1250    0.0000 C   0  0  0  0  0  0  0  0  0  0  0  0
   18.6672   -7.3750    0.0000 C   0  0  0  0  0  0  0  0  0  0  0  0
   14.7703   -5.1249    0.0000 C   0  0  0  0  0  0  0  0  0  0  0  0
   13.4714   -5.8749    0.0000 C   0  0  0  0  0  0  0  0  0  0  0  0
   12.1722   -5.1249    0.0000 C   0  0  0  0  0  0  0  0  0  0  0  0
   12.1722   -3.6249    0.0000 C   0  0  0  0  0  0  0  0  0  0  0  0
   13.4714   -2.8749    0.0000 C   0  0  0  0  0  0  0  0  0  0  0  0
   14.7703   -3.6249    0.0000 C   0  0  0  0  0  0  0  0  0  0  0  0
  1  2  1  0  0  0  0
  2  3  1  0  0  0  0
  3  4  2  0  0  0  0
  3  8  1  0  0  0  0
  4  5  1  0  0  0  0
  5  6  2  0  0  0  0
  6  7  1  0  0  0  0
  6  9  1  0  0  0  0
  7  8  2  0  0  0  0
  9 10  1  0  0  0  0
  9 14  1  0  0  0  0
 10 11  1  0  0  0  0
 11 12  1  0  0  0  0
 12 13  1  0  0  0  0
 12 15  1  0  0  0  0
 13 14  1  0  0  0  0
 15 16  2  0  0  0  0
 15 24  1  0  0  0  0
 16 17  1  0  0  0  0
 17 18  2  0  0  0  0
 17 25  1  0  0  0  0
 18 19  1  0  0  0  0
 19 20  2  0  0  0  0
 19 24  1  0  0  0  0
 20 21  1  0  0  0  0
 21 22  2  0  0  0  0
 22 23  1  0  0  0  0
 23 24  2  0  0  0  0
 25 26  2  0  0  0  0
 25 30  1  0  0  0  0
 26 27  1  0  0  0  0
 27 28  2  0  0  0  0
 28 29  1  0  0  0  0
 29 30  2  0  0  0  0
M  END
$$$$
