Z32440384
 OpenBabel06102415182D

 23 26  0  0  0  0  0  0  0  0999 V2000
   24.4393  -13.9112    0.0000 O   0  0  0  0  0  0  0  0  0  0  0  0
   23.4355  -12.7963    0.0000 C   0  0  0  0  0  0  0  0  0  0  0  0
   21.9684  -13.1083    0.0000 N   0  0  0  0  0  0  0  0  0  0  0  0
   21.5049  -14.5348    0.0000 C   0  0  0  0  0  0  0  0  0  0  0  0
   20.0376  -14.8467    0.0000 C   0  0  0  0  0  0  0  0  0  0  0  0
   19.5742  -16.2734    0.0000 C   0  0  0  0  0  0  0  0  0  0  0  0
   20.4558  -17.4869    0.0000 C   0  0  0  0  0  0  0  0  0  0  0  0
   19.5742  -18.7003    0.0000 N   0  0  0  0  0  0  0  0  0  0  0  0
   18.1476  -18.2369    0.0000 C   0  0  0  0  0  0  0  0  0  0  0  0
   16.8485  -18.9869    0.0000 C   0  0  0  0  0  0  0  0  0  0  0  0
   15.5496  -18.2369    0.0000 C   0  0  0  0  0  0  0  0  0  0  0  0
   15.5496  -16.7369    0.0000 C   0  0  0  0  0  0  0  0  0  0  0  0
   16.8485  -15.9868    0.0000 C   0  0  0  0  0  0  0  0  0  0  0  0
   18.1476  -16.7369    0.0000 C   0  0  0  0  0  0  0  0  0  0  0  0
   23.8991  -11.3697    0.0000 C   0  0  0  0  0  0  0  0  0  0  0  0
   23.0173  -10.1562    0.0000 N   0  0  0  0  0  0  0  0  0  0  0  0
   23.8991   -8.9426    0.0000 N   0  0  0  0  0  0  0  0  0  0  0  0
   25.3257   -9.4062    0.0000 C   0  0  0  0  0  0  0  0  0  0  0  0
   26.6248   -8.6564    0.0000 C   0  0  0  0  0  0  0  0  0  0  0  0
   27.9237   -9.4062    0.0000 C   0  0  0  0  0  0  0  0  0  0  0  0
   27.9237  -10.9063    0.0000 C   0  0  0  0  0  0  0  0  0  0  0  0
   26.6248  -11.6563    0.0000 C   0  0  0  0  0  0  0  0  0  0  0  0
   25.3257  -10.9063    0.0000 C   0  0  0  0  0  0  0  0  0  0  0  0
  1  2  2  0  0  0  0
  2  3  1  0  0  0  0
  2 15  1  0  0  0  0
  3  4  1  0  0  0  0
  4  5  1  0  0  0  0
  5  6  1  0  0  0  0
  6  7  2  0  0  0  0
  6 14  1  0  0  0  0
  7  8  1  0  0  0  0
  8  9  1  0  0  0  0
  9 10  2  0  0  0  0
  9 14  1  0  0  0  0
 10 11  1  0  0  0  0
 11 12  2  0  0  0  0
 12 13  1  0  0  0  0
 13 14  2  0  0  0  0
 15 16  2  0  0  0  0
 15 23  1  0  0  0  0
 16 17  1  0  0  0  0
 17 18  1  0  0  0  0
 18 19  2  0  0  0  0
 18 23  1  0  0  0  0
 19 20  1  0  0  0  0
 20 21  2  0  0  0  0
 21 22  1  0  0  0  0
 22 23  2  0  0  0  0
M  END
$$$$
