
##########                                Name:        608_501_2P2I
##########                    Molecular_Weight:             396.448
##########                DOCK_Rotatable_Bonds:                   8
##########                       Formal_Charge:         0.000100359
##########                     HBond_Acceptors:                   6
##########                        HBond_Donors:                   2
##########                         Heavy_Atoms:                  30
##########                            HA_RMSDs:               0.202
##########                            HA_RMSDh:               0.202
##########                            HA_RMSDm:               0.202
##########                          Grid_Score:          -59.018364
##########                     Grid_vdw_energy:          -57.164330
##########                      Grid_es_energy:           -1.854035
##########           Internal_energy_repulsive:           12.086535

@<TRIPOS>MOLECULE
608_501_2P2I
 50 53 1 0 0
SMALL
USER_CHARGES


@<TRIPOS>ATOM
      1 C1         38.5628   44.4776   10.6418 C.ar    1  <0>        -0.0616
      2 C2         39.3548   43.9100   11.7256 C.ar    1  <0>        -0.0593
      3 C3         38.1240   43.7274    9.4708 C.ar    1  <0>        -0.0593
      4 C4         34.5314   32.4739   12.4920 C.ar    1  <0>        -0.0427
      5 C5         39.7180   42.5178   11.6103 C.ar    1  <0>        -0.0312
      6 C6         38.4912   42.3302    9.3635 C.ar    1  <0>        -0.0312
      7 C7         35.3879   33.5948   12.2917 C.ar    1  <0>        -0.0449
      8 C8         38.5886   36.8964   10.5428 C.ar    1  <0>        -0.0380
      9 C9         37.3878   38.1886   12.4265 C.ar    1  <0>        -0.0380
     10 C10        39.2384   38.0975   10.1134 C.ar    1  <0>        -0.0294
     11 C11        38.0399   39.3987   12.0001 C.ar    1  <0>        -0.0294
     12 C12        39.9700   28.7679   13.9969 C.ar    1  <0>        -0.0389
     13 C13        39.5250   30.2142   11.8881 C.ar    1  <0>        -0.0389
     14 C14        35.0958   31.3025   13.0984 C.ar    1  <0>         0.0297
     15 C15        40.4076   27.7159   13.1538 C.ar    1  <0>         0.0279
     16 C16        39.9766   29.1115   11.0983 C.ar    1  <0>         0.0279
     17 C17        39.1181   31.1166   14.2816 C.3     1  <0>         0.0358
     18 C18        39.5444   29.9929   13.3277 C.ar    1  <0>        -0.0275
     19 C19        37.6852   36.9751   11.6818 C.ar    1  <0>         0.0338
     20 C20        39.2821   41.7615   10.4354 C.ar    1  <0>         0.0831
     21 C21        38.9523   39.3268   10.8491 C.ar    1  <0>         0.0832
     22 C22        36.7820   33.5670   12.6785 C.ar    1  <0>         0.0767
     23 C23        37.2586   32.3676   13.2791 C.ar    1  <0>         0.1311
     24 C24        37.6759   34.7125   12.4038 C.2     1  <0>         0.2516
     25 N1         40.3829   27.9555   11.7904 N.ar    1  <0>        -0.2632
     26 N2         36.4145   31.2695   13.4733 N.ar    1  <0>        -0.2397
     27 N3         38.5670   32.3118   13.6601 N.pl3   1  <0>        -0.3244
     28 N4         37.0511   35.8667   12.1252 N.am    1  <0>        -0.2814
     29 O1         38.9011   34.6568   12.4026 O.2     1  <0>        -0.2697
     30 O2         39.6609   40.4410   10.3161 O.3     1  <0>        -0.3093
     31 H1         38.2835   45.5186   10.7100 H       1  <0>         0.0618
     32 H2         39.6561   44.5038   12.5760 H       1  <0>         0.0618
     33 H3         37.5372   44.2037    8.6994 H       1  <0>         0.0618
     34 H4         33.4928   32.5050   12.1973 H       1  <0>         0.0633
     35 H5         40.3041   42.0400   12.3814 H       1  <0>         0.0643
     36 H6         38.1865   41.7347    8.5156 H       1  <0>         0.0643
     37 H7         34.9858   34.4892   11.8392 H       1  <0>         0.0627
     38 H8         38.7633   35.9587   10.0362 H       1  <0>         0.0637
     39 H9         36.7063   38.1819   13.2643 H       1  <0>         0.0637
     40 H10        39.9176   38.0950    9.2736 H       1  <0>         0.0644
     41 H11        37.8639   40.3336   12.5113 H       1  <0>         0.0644
     42 H12        39.9527   28.6687   15.0722 H       1  <0>         0.0636
     43 H13        39.1936   31.1438   11.4494 H       1  <0>         0.0636
     44 H14        34.4736   30.4349   13.2618 H       1  <0>         0.0830
     45 H15        40.7443   26.7719   13.5559 H       1  <0>         0.0829
     46 H16        40.0047   29.1632   10.0199 H       1  <0>         0.0829
     47 H17        38.3427   30.7059   14.9451 H       1  <0>         0.0511
     48 H18        40.0114   31.4235   14.8454 H       1  <0>         0.0511
     49 H19        38.6870   33.0458   14.3286 H       1  <0>         0.1478
     50 H20        36.0602   35.9094   12.2528 H       1  <0>         0.1551
@<TRIPOS>BOND
     1     1     2   ar
     2     1     3   ar
     3     2     5   ar
     4     3     6   ar
     5     4     7   ar
     6     4    14   ar
     7     5    20   ar
     8     6    20   ar
     9     7    22   ar
    10     8    10   ar
    11     8    19   ar
    12     9    11   ar
    13     9    19   ar
    14    10    21   ar
    15    11    21   ar
    16    12    15   ar
    17    12    18   ar
    18    13    16   ar
    19    13    18   ar
    20    14    26   ar
    21    15    25   ar
    22    16    25   ar
    23    17    18    1
    24    17    27    1
    25    19    28    1
    26    20    30    1
    27    21    30    1
    28    22    23   ar
    29    22    24    1
    30    23    26   ar
    31    23    27    1
    32    24    28   am
    33    24    29    2
    34     1    31    1
    35     2    32    1
    36     3    33    1
    37     4    34    1
    38     5    35    1
    39     6    36    1
    40     7    37    1
    41     8    38    1
    42     9    39    1
    43    10    40    1
    44    11    41    1
    45    12    42    1
    46    13    43    1
    47    14    44    1
    48    15    45    1
    49    16    46    1
    50    17    47    1
    51    17    48    1
    52    27    49    1
    53    28    50    1
@<TRIPOS>SUBSTRUCTURE
     1 <0>         1 TEMP              0 ****  ****    0 ROOT

