
##########                                Name:        A7T_342_3G6Z
##########                    Molecular_Weight:             622.634
##########                DOCK_Rotatable_Bonds:                  11
##########                       Formal_Charge:              2.0004
##########                     HBond_Acceptors:                   8
##########                        HBond_Donors:                   4
##########                         Heavy_Atoms:                  43
##########                            HA_RMSDs:               8.783
##########                            HA_RMSDh:               5.625
##########                            HA_RMSDm:               4.620
##########                          Grid_Score:         -192.533234
##########                     Grid_vdw_energy:          -61.433331
##########                      Grid_es_energy:         -131.099899
##########           Internal_energy_repulsive:           53.594666

@<TRIPOS>MOLECULE
A7T_342_3G6Z
 84 89 1 0 0
SMALL
USER_CHARGES


@<TRIPOS>ATOM
      1 C1        -11.9827  -16.1954   -8.5757 C.3     1  <0>        -0.0395
      2 C2         -9.9558  -21.9374  -11.5736 C.3     1  <0>        -0.0396
      3 C3         -9.3440  -17.2032   -9.1022 C.3     1  <0>        -0.0392
      4 C4         -9.9005  -12.9894   -8.5710 C.ar    1  <0>        -0.0612
      5 C5        -10.9830  -13.8656   -8.4789 C.ar    1  <0>        -0.0586
      6 C6         -8.6130  -13.4752   -8.8286 C.ar    1  <0>        -0.0568
      7 C7         -2.1919  -16.0695  -10.7910 C.ar    1  <0>        -0.0519
      8 C8         -3.2991  -16.3100   -8.6568 C.ar    1  <0>        -0.0519
      9 C9         -2.1359  -17.4474  -10.9248 C.ar    1  <0>        -0.0311
     10 C10        -3.2455  -17.7002   -8.7908 C.ar    1  <0>        -0.0311
     11 C11        -7.7311  -22.7695  -12.2820 C.ar    1  <0>        -0.0379
     12 C12        -7.9021  -20.4714  -11.5308 C.ar    1  <0>        -0.0379
     13 C13        -6.8957  -14.0319  -11.8713 C.3     1  <0>        -0.0326
     14 C14        -5.4839  -13.4593  -11.8429 C.3     1  <0>        -0.0326
     15 C15        -1.4746  -13.2930   -9.9171 C.3     1  <0>         0.0216
     16 C16        -1.1372  -11.4037   -8.3239 C.3     1  <0>         0.0109
     17 C17        -3.6525  -11.3207   -7.7679 C.3     1  <0>         0.0151
     18 C18        -2.4563  -20.2505  -11.3279 C.3     1  <0>         0.0780
     19 C19        -3.4388  -21.4069  -11.4110 C.3     1  <0>         0.0782
     20 C20        -7.1022  -15.4683   -9.2919 C.3     1  <0>         0.0406
     21 C21       -10.8086  -15.2381   -8.6642 C.ar    1  <0>        -0.0472
     22 C22        -8.4811  -21.7131  -11.8003 C.ar    1  <0>        -0.0475
     23 C23        -9.5366  -15.7205   -8.9168 C.ar    1  <0>        -0.0429
     24 C24        -2.7616  -15.4915   -9.6669 C.ar    1  <0>        -0.0209
     25 C25        -2.6634  -18.2623   -9.9259 C.ar    1  <0>         0.0763
     26 C26        -8.4404  -14.8478   -8.9897 C.ar    1  <0>        -0.0269
     27 C27        -6.3737  -22.6413  -12.5139 C.ar    1  <0>         0.0726
     28 C28        -6.5445  -20.2328  -11.7356 C.ar    1  <0>         0.0726
     29 C29        -5.7062  -21.3420  -12.2445 C.ar    1  <0>         0.1128
     30 C30        -5.7647  -14.8056  -11.1909 C.3     1  <0>         0.0268
     31 C31        -1.5061  -11.7750   -9.7541 C.3     1  <0>         0.0230
     32 C32        -3.9093  -11.8057   -9.1932 C.3     1  <0>         0.0496
     33 C33        -2.7988  -13.9858   -9.5855 C.2     1  <0>        -0.0210
     34 C34        -3.9320  -13.3125   -9.2427 C.2     1  <0>         0.0709
     35 C35        -5.1571  -14.0400   -8.8455 C.2     1  <0>         0.2490
     36 N1         -2.2581  -11.5822   -7.4069 N.4     1  <0>         0.2352
     37 N2         -2.8359  -11.2934  -10.0373 N.4     1  <0>         0.2425
     38 N3         -5.9570  -14.6690   -9.7294 N.am    1  <0>        -0.2902
     39 O1         -5.4516  -14.0729   -7.6488 O.2     1  <0>        -0.2701
     40 O2         -2.6074  -19.6188  -10.0562 O.3     1  <0>        -0.3424
     41 O3         -4.3681  -21.1780  -12.4637 O.3     1  <0>        -0.3395
     42 Cl1        -5.4659  -24.0540  -13.1527 Cl      1  <0>        -0.0808
     43 Cl2        -5.8351  -18.6188  -11.3782 Cl      1  <0>        -0.0808
     44 H1        -12.4334  -16.3169   -9.5718 H       1  <0>         0.0278
     45 H2        -11.6326  -17.1721   -8.2102 H       1  <0>         0.0278
     46 H3        -12.7335  -15.7914   -7.8805 H       1  <0>         0.0278
     47 H4        -10.1191  -22.2952  -10.5462 H       1  <0>         0.0278
     48 H5        -10.4975  -20.9917  -11.7228 H       1  <0>         0.0278
     49 H6        -10.3261  -22.6887  -12.2866 H       1  <0>         0.0278
     50 H7         -9.4548  -17.4577  -10.1666 H       1  <0>         0.0278
     51 H8         -8.3379  -17.4877   -8.7602 H       1  <0>         0.0278
     52 H9        -10.0984  -17.7471   -8.5148 H       1  <0>         0.0278
     53 H10       -10.0573  -11.9286   -8.4426 H       1  <0>         0.0618
     54 H11       -11.9670  -13.4771   -8.2616 H       1  <0>         0.0620
     55 H12        -7.7726  -12.8008   -8.9008 H       1  <0>         0.0621
     56 H13        -1.7878  -15.4397  -11.5697 H       1  <0>         0.0624
     57 H14        -3.7511  -15.8663   -7.7819 H       1  <0>         0.0624
     58 H15        -1.6846  -17.8885  -11.8012 H       1  <0>         0.0643
     59 H16        -3.6531  -18.3359   -8.0186 H       1  <0>         0.0643
     60 H17        -8.2149  -23.7142  -12.4813 H       1  <0>         0.0636
     61 H18        -8.5240  -19.6733  -11.1530 H       1  <0>         0.0636
     62 H19        -7.8425  -13.6383  -11.4730 H       1  <0>         0.0284
     63 H20        -7.5488  -14.3008  -12.7146 H       1  <0>         0.0284
     64 H21        -4.8033  -13.1872  -12.6630 H       1  <0>         0.0284
     65 H22        -5.0983  -12.5218  -11.4159 H       1  <0>         0.0284
     66 H23        -1.2285  -13.5162  -10.9658 H       1  <0>         0.0370
     67 H24        -0.7050  -13.6907   -9.2392 H       1  <0>         0.0370
     68 H25        -0.3085  -12.0483   -7.9959 H       1  <0>         0.0870
     69 H26        -0.8304  -10.3475   -8.3028 H       1  <0>         0.0870
     70 H27        -3.8505  -10.2403   -7.7071 H       1  <0>         0.0874
     71 H28        -4.3175  -11.8550   -7.0734 H       1  <0>         0.0874
     72 H29        -1.4283  -20.6263  -11.4376 H       1  <0>         0.0588
     73 H30        -2.6634  -19.5273  -12.1304 H       1  <0>         0.0588
     74 H31        -2.8885  -22.3388  -11.6074 H       1  <0>         0.0588
     75 H32        -3.9817  -21.4925  -10.4582 H       1  <0>         0.0588
     76 H33        -6.7837  -15.9499   -8.3557 H       1  <0>         0.0514
     77 H34        -7.2879  -16.1851  -10.1054 H       1  <0>         0.0514
     78 H35        -5.3045  -15.8019  -11.2677 H       1  <0>         0.0501
     79 H36        -0.7855  -11.3198  -10.4495 H       1  <0>         0.0907
     80 H37        -4.8859  -11.4428   -9.5465 H       1  <0>         0.0959
     81 H38        -2.2336  -12.5494   -7.1540 H       1  <0>         0.2018
     82 H39        -2.0685  -10.9645   -6.6437 H       1  <0>         0.2018
     83 H40        -2.8203  -10.2999   -9.9243 H       1  <0>         0.2027
     84 H41        -3.0503  -11.5547  -10.9785 H       1  <0>         0.2027
@<TRIPOS>BOND
     1     1    21    1
     2     2    22    1
     3     3    23    1
     4     4     5   ar
     5     4     6   ar
     6     5    21   ar
     7     6    26   ar
     8     7     9   ar
     9     7    24   ar
    10     8    10   ar
    11     8    24   ar
    12     9    25   ar
    13    10    25   ar
    14    11    22   ar
    15    11    27   ar
    16    12    22   ar
    17    12    28   ar
    18    13    14    1
    19    13    30    1
    20    14    30    1
    21    15    31    1
    22    15    33    1
    23    16    31    1
    24    16    36    1
    25    17    32    1
    26    17    36    1
    27    18    19    1
    28    18    40    1
    29    19    41    1
    30    20    26    1
    31    20    38    1
    32    21    23   ar
    33    23    26   ar
    34    24    33    1
    35    25    40    1
    36    27    29   ar
    37    27    42    1
    38    28    29   ar
    39    28    43    1
    40    29    41    1
    41    30    38    1
    42    31    37    1
    43    32    34    1
    44    32    37    1
    45    33    34    2
    46    34    35    1
    47    35    38   am
    48    35    39    2
    49     1    44    1
    50     1    45    1
    51     1    46    1
    52     2    47    1
    53     2    48    1
    54     2    49    1
    55     3    50    1
    56     3    51    1
    57     3    52    1
    58     4    53    1
    59     5    54    1
    60     6    55    1
    61     7    56    1
    62     8    57    1
    63     9    58    1
    64    10    59    1
    65    11    60    1
    66    12    61    1
    67    13    62    1
    68    13    63    1
    69    14    64    1
    70    14    65    1
    71    15    66    1
    72    15    67    1
    73    16    68    1
    74    16    69    1
    75    17    70    1
    76    17    71    1
    77    18    72    1
    78    18    73    1
    79    19    74    1
    80    19    75    1
    81    20    76    1
    82    20    77    1
    83    30    78    1
    84    31    79    1
    85    32    80    1
    86    36    81    1
    87    36    82    1
    88    37    83    1
    89    37    84    1
@<TRIPOS>SUBSTRUCTURE
     1 <0>         1 TEMP              0 ****  ****    0 ROOT

