
##########                                Name:        A7T_342_3G6Z
##########                    Molecular_Weight:             622.634
##########                DOCK_Rotatable_Bonds:                  11
##########                       Formal_Charge:              2.0004
##########                     HBond_Acceptors:                   8
##########                        HBond_Donors:                   4
##########                         Heavy_Atoms:                  43
##########                            HA_RMSDs:               9.273
##########                            HA_RMSDh:               5.967
##########                            HA_RMSDm:               4.847
##########                          Grid_Score:         -193.266602
##########                     Grid_vdw_energy:          -61.256363
##########                      Grid_es_energy:         -132.010239
##########           Internal_energy_repulsive:           48.233688

@<TRIPOS>MOLECULE
A7T_342_3G6Z
 84 89 1 0 0
SMALL
USER_CHARGES


@<TRIPOS>ATOM
      1 C1        -11.2268  -16.6055   -9.1117 C.3     1  <0>        -0.0395
      2 C2         -8.7033  -22.9523  -12.2136 C.3     1  <0>        -0.0396
      3 C3         -8.5245  -17.2553   -9.8408 C.3     1  <0>        -0.0392
      4 C4         -9.4410  -13.2696   -8.5673 C.ar    1  <0>        -0.0612
      5 C5        -10.4375  -14.2454   -8.6177 C.ar    1  <0>        -0.0586
      6 C6         -8.1231  -13.5807   -8.9227 C.ar    1  <0>        -0.0568
      7 C7         -1.6138  -15.2198  -10.5704 C.ar    1  <0>        -0.0519
      8 C8         -2.5067  -15.7731   -8.3943 C.ar    1  <0>        -0.0519
      9 C9         -1.3849  -16.5623  -10.8252 C.ar    1  <0>        -0.0311
     10 C10        -2.2784  -17.1280   -8.6502 C.ar    1  <0>        -0.0311
     11 C11        -6.2452  -23.0921  -12.4998 C.ar    1  <0>        -0.0379
     12 C12        -7.2242  -20.9107  -12.1023 C.ar    1  <0>        -0.0379
     13 C13        -5.9211  -13.5990  -12.1382 C.3     1  <0>        -0.0326
     14 C14        -4.5939  -12.9356  -11.7912 C.3     1  <0>        -0.0326
     15 C15        -1.1296  -12.4799   -9.1802 C.3     1  <0>         0.0216
     16 C16        -1.2897  -10.7557   -7.3849 C.3     1  <0>         0.0109
     17 C17        -3.8535  -10.9954   -7.2752 C.3     1  <0>         0.0151
     18 C18        -1.6807  -19.4054  -11.4122 C.3     1  <0>         0.0780
     19 C19        -2.7001  -20.5271  -11.3026 C.3     1  <0>         0.0782
     20 C20        -6.4537  -15.3125   -9.7494 C.3     1  <0>         0.0406
     21 C21       -10.1462  -15.5422   -9.0445 C.ar    1  <0>        -0.0472
     22 C22        -7.3483  -22.2911  -12.2720 C.ar    1  <0>        -0.0475
     23 C23        -8.8439  -15.8523   -9.3942 C.ar    1  <0>        -0.0429
     24 C24        -2.1650  -14.8136   -9.3648 C.ar    1  <0>        -0.0209
     25 C25        -1.7180  -17.5160   -9.8661 C.ar    1  <0>         0.0763
     26 C26        -7.8328  -14.8818   -9.3257 C.ar    1  <0>        -0.0269
     27 C27        -4.9706  -22.5593  -12.5656 C.ar    1  <0>         0.0726
     28 C28        -5.9871  -20.2712  -12.1567 C.ar    1  <0>         0.0726
     29 C29        -4.7806  -21.0964  -12.3923 C.ar    1  <0>         0.1128
     30 C30        -4.8788  -14.3504  -11.3078 C.3     1  <0>         0.0268
     31 C31        -1.3706  -11.0010   -8.8857 C.3     1  <0>         0.0230
     32 C32        -3.8118  -11.3420   -8.7621 C.3     1  <0>         0.0496
     33 C33        -2.3967  -13.3384   -9.1525 C.2     1  <0>        -0.0210
     34 C34        -3.6438  -12.8281   -8.9538 C.2     1  <0>         0.0709
     35 C35        -4.8207  -13.7180   -8.8476 C.2     1  <0>         0.2490
     36 N1         -2.5162  -11.1503   -6.7000 N.4     1  <0>         0.2352
     37 N2         -2.6840  -10.6305   -9.3530 N.4     1  <0>         0.2425
     38 N3         -5.3562  -14.3571   -9.9065 N.am    1  <0>        -0.2902
     39 O1         -5.3269  -13.8820   -7.7354 O.2     1  <0>        -0.2701
     40 O2         -1.4915  -18.8375  -10.1157 O.3     1  <0>        -0.3424
     41 O3         -3.5371  -20.5349  -12.4530 O.3     1  <0>        -0.3395
     42 Cl1        -3.5856  -23.6604  -12.8776 Cl      1  <0>        -0.0808
     43 Cl2        -5.8673  -18.4902  -11.9348 Cl      1  <0>        -0.0808
     44 H1        -11.6931  -16.5927  -10.1079 H       1  <0>         0.0278
     45 H2        -10.7801  -17.5940   -8.9288 H       1  <0>         0.0278
     46 H3        -11.9904  -16.4009   -8.3468 H       1  <0>         0.0278
     47 H4         -8.9223  -23.2498  -11.1774 H       1  <0>         0.0278
     48 H5         -9.4711  -22.2460  -12.5622 H       1  <0>         0.0278
     49 H6         -8.7044  -23.8433  -12.8587 H       1  <0>         0.0278
     50 H7         -8.6426  -17.3293  -10.9319 H       1  <0>         0.0278
     51 H8         -7.4875  -17.5000   -9.5670 H       1  <0>         0.0278
     52 H9         -9.2100  -17.9613   -9.3493 H       1  <0>         0.0278
     53 H10        -9.6885  -12.2668   -8.2517 H       1  <0>         0.0618
     54 H11       -11.4457  -13.9944   -8.3230 H       1  <0>         0.0620
     55 H12        -7.3489  -12.8286   -8.8852 H       1  <0>         0.0621
     56 H13        -1.3605  -14.4827  -11.3179 H       1  <0>         0.0624
     57 H14        -2.9433  -15.4641   -7.4560 H       1  <0>         0.0624
     58 H15        -0.9494  -16.8685  -11.7648 H       1  <0>         0.0643
     59 H16        -2.5349  -17.8709   -7.9093 H       1  <0>         0.0643
     60 H17        -6.3814  -24.1556  -12.6290 H       1  <0>         0.0636
     61 H18        -8.1118  -20.3219  -11.9239 H       1  <0>         0.0636
     62 H19        -6.9562  -13.3080  -11.9058 H       1  <0>         0.0284
     63 H20        -6.3770  -13.8363  -13.1108 H       1  <0>         0.0284
     64 H21        -3.7953  -12.5460  -12.4395 H       1  <0>         0.0284
     65 H22        -4.3770  -12.0153  -11.2291 H       1  <0>         0.0284
     66 H23        -0.6892  -12.5580  -10.1852 H       1  <0>         0.0370
     67 H24        -0.4397  -12.8693   -8.4171 H       1  <0>         0.0370
     68 H25        -0.4544  -11.3440   -6.9770 H       1  <0>         0.0870
     69 H26        -1.1203   -9.6826   -7.2125 H       1  <0>         0.0870
     70 H27        -4.1878   -9.9548   -7.1506 H       1  <0>         0.0874
     71 H28        -4.5541  -11.6697   -6.7610 H       1  <0>         0.0874
     72 H29        -0.7265  -19.8043  -11.7872 H       1  <0>         0.0588
     73 H30        -2.0474  -18.6352  -12.1066 H       1  <0>         0.0588
     74 H31        -2.1747  -21.4906  -11.2280 H       1  <0>         0.0588
     75 H32        -3.3165  -20.3723  -10.4048 H       1  <0>         0.0588
     76 H33        -6.1177  -16.0216   -8.9785 H       1  <0>         0.0514
     77 H34        -6.5820  -15.7774  -10.7381 H       1  <0>         0.0514
     78 H35        -4.3300  -15.3020  -11.3657 H       1  <0>         0.0501
     79 H36        -0.6058  -10.3990   -9.3982 H       1  <0>         0.0907
     80 H37        -4.7535  -11.0447   -9.2467 H       1  <0>         0.0959
     81 H38        -2.4170  -12.1320   -6.5373 H       1  <0>         0.2018
     82 H39        -2.5308  -10.6055   -5.8616 H       1  <0>         0.2018
     83 H40        -2.8073   -9.6596   -9.1476 H       1  <0>         0.2027
     84 H41        -2.7075  -10.8058  -10.3372 H       1  <0>         0.2027
@<TRIPOS>BOND
     1     1    21    1
     2     2    22    1
     3     3    23    1
     4     4     5   ar
     5     4     6   ar
     6     5    21   ar
     7     6    26   ar
     8     7     9   ar
     9     7    24   ar
    10     8    10   ar
    11     8    24   ar
    12     9    25   ar
    13    10    25   ar
    14    11    22   ar
    15    11    27   ar
    16    12    22   ar
    17    12    28   ar
    18    13    14    1
    19    13    30    1
    20    14    30    1
    21    15    31    1
    22    15    33    1
    23    16    31    1
    24    16    36    1
    25    17    32    1
    26    17    36    1
    27    18    19    1
    28    18    40    1
    29    19    41    1
    30    20    26    1
    31    20    38    1
    32    21    23   ar
    33    23    26   ar
    34    24    33    1
    35    25    40    1
    36    27    29   ar
    37    27    42    1
    38    28    29   ar
    39    28    43    1
    40    29    41    1
    41    30    38    1
    42    31    37    1
    43    32    34    1
    44    32    37    1
    45    33    34    2
    46    34    35    1
    47    35    38   am
    48    35    39    2
    49     1    44    1
    50     1    45    1
    51     1    46    1
    52     2    47    1
    53     2    48    1
    54     2    49    1
    55     3    50    1
    56     3    51    1
    57     3    52    1
    58     4    53    1
    59     5    54    1
    60     6    55    1
    61     7    56    1
    62     8    57    1
    63     9    58    1
    64    10    59    1
    65    11    60    1
    66    12    61    1
    67    13    62    1
    68    13    63    1
    69    14    64    1
    70    14    65    1
    71    15    66    1
    72    15    67    1
    73    16    68    1
    74    16    69    1
    75    17    70    1
    76    17    71    1
    77    18    72    1
    78    18    73    1
    79    19    74    1
    80    19    75    1
    81    20    76    1
    82    20    77    1
    83    30    78    1
    84    31    79    1
    85    32    80    1
    86    36    81    1
    87    36    82    1
    88    37    83    1
    89    37    84    1
@<TRIPOS>SUBSTRUCTURE
     1 <0>         1 TEMP              0 ****  ****    0 ROOT

