
##########                                Name:        A7T_342_3G6Z
##########                    Molecular_Weight:             622.634
##########                DOCK_Rotatable_Bonds:                  11
##########                       Formal_Charge:              2.0004
##########                     HBond_Acceptors:                   8
##########                        HBond_Donors:                   4
##########                         Heavy_Atoms:                  43
##########                            HA_RMSDs:               0.229
##########                            HA_RMSDh:               0.229
##########                            HA_RMSDm:               0.229
##########                          Grid_Score:         -225.435333
##########                     Grid_vdw_energy:          -81.940651
##########                      Grid_es_energy:         -143.494675
##########           Internal_energy_repulsive:           58.610104

@<TRIPOS>MOLECULE
A7T_342_3G6Z
 84 89 1 0 0
SMALL
USER_CHARGES


@<TRIPOS>ATOM
      1 C1         -3.3504  -10.7495   -7.3961 C.3     1  <0>        -0.0395
      2 C2        -11.0656   -8.7756   -6.5078 C.3     1  <0>        -0.0396
      3 C3         -5.6120  -12.5213   -7.4405 C.3     1  <0>        -0.0392
      4 C4         -2.8444  -12.5885  -10.7091 C.ar    1  <0>        -0.0612
      5 C5         -2.6470  -11.7264   -9.6295 C.ar    1  <0>        -0.0586
      6 C6         -3.9454  -13.4528  -10.7362 C.ar    1  <0>        -0.0568
      7 C7         -9.5611  -17.8819  -10.9348 C.ar    1  <0>        -0.0519
      8 C8         -7.9501  -17.4559   -9.1850 C.ar    1  <0>        -0.0519
      9 C9        -10.5914  -17.5118  -10.0855 C.ar    1  <0>        -0.0311
     10 C10        -8.9878  -17.0803   -8.3273 C.ar    1  <0>        -0.0311
     11 C11       -12.8254  -10.4262   -7.0754 C.ar    1  <0>        -0.0379
     12 C12       -10.5194  -11.0159   -7.5331 C.ar    1  <0>        -0.0379
     13 C13        -7.0784  -13.6746  -12.2183 C.3     1  <0>        -0.0326
     14 C14        -7.1482  -15.0174  -12.9352 C.3     1  <0>        -0.0326
     15 C15        -7.5205  -19.4758  -12.3506 C.3     1  <0>         0.0216
     16 C16        -5.5053  -20.9311  -12.5577 C.3     1  <0>         0.0109
     17 C17        -3.9397  -18.9886  -11.9109 C.3     1  <0>         0.0151
     18 C18       -12.5582  -16.2358   -8.4370 C.3     1  <0>         0.0780
     19 C19       -12.8742  -14.9465   -7.6975 C.3     1  <0>         0.0782
     20 C20        -6.0600  -14.3034   -9.6072 C.3     1  <0>         0.0406
     21 C21        -3.5532  -11.6917   -8.5683 C.ar    1  <0>        -0.0472
     22 C22       -11.4780  -10.1189   -7.0574 C.ar    1  <0>        -0.0475
     23 C23        -4.6409  -12.5466   -8.5922 C.ar    1  <0>        -0.0429
     24 C24        -8.2452  -17.8643  -10.4985 C.ar    1  <0>        -0.0209
     25 C25       -10.3049  -17.1102   -8.7829 C.ar    1  <0>         0.0763
     26 C26        -4.8342  -13.4310   -9.6642 C.ar    1  <0>        -0.0269
     27 C27       -13.2805  -11.6379   -7.5627 C.ar    1  <0>         0.0726
     28 C28       -10.8704  -12.2610   -8.0514 C.ar    1  <0>         0.0726
     29 C29       -12.3040  -12.6297   -8.0815 C.ar    1  <0>         0.1128
     30 C30        -7.4840  -14.9357  -11.4530 C.3     1  <0>         0.0268
     31 C31        -6.3926  -19.9240  -13.2774 C.3     1  <0>         0.0230
     32 C32        -4.9538  -18.0505  -12.5622 C.3     1  <0>         0.0496
     33 C33        -7.1693  -18.2707  -11.4743 C.2     1  <0>        -0.0210
     34 C34        -5.9840  -17.6047  -11.5555 C.2     1  <0>         0.0709
     35 C35        -5.6658  -16.5034  -10.6207 C.2     1  <0>         0.2490
     36 N1         -4.5722  -20.2815  -11.6432 N.4     1  <0>         0.2352
     37 N2         -5.5986  -18.7786  -13.6492 N.4     1  <0>         0.2425
     38 N3         -6.3294  -15.3302  -10.6146 N.am    1  <0>        -0.2902
     39 O1         -4.7538  -16.6751   -9.8090 O.2     1  <0>        -0.2701
     40 O2        -11.3186  -16.7471   -7.9459 O.3     1  <0>        -0.3424
     41 O3        -12.7170  -13.8355   -8.5722 O.3     1  <0>        -0.3395
     42 Cl1       -15.0476  -11.9625   -7.5665 Cl      1  <0>        -0.0808
     43 Cl2        -9.6068  -13.3893   -8.6564 Cl      1  <0>        -0.0808
     44 H1         -3.8552   -9.7940   -7.6015 H       1  <0>         0.0278
     45 H2         -3.7742  -11.1998   -6.4864 H       1  <0>         0.0278
     46 H3         -2.2746  -10.5719   -7.2506 H       1  <0>         0.0278
     47 H4        -10.8829   -8.8617   -5.4265 H       1  <0>         0.0278
     48 H5        -10.1456   -8.4412   -7.0096 H       1  <0>         0.0278
     49 H6        -11.8677   -8.0445   -6.6869 H       1  <0>         0.0278
     50 H7         -6.4099  -11.7934   -7.6490 H       1  <0>         0.0278
     51 H8         -6.0525  -13.5208   -7.3105 H       1  <0>         0.0278
     52 H9         -5.0825  -12.2314   -6.5210 H       1  <0>         0.0278
     53 H10        -2.1425  -12.5888  -11.5299 H       1  <0>         0.0618
     54 H11        -1.7829  -11.0787   -9.6149 H       1  <0>         0.0620
     55 H12        -4.1021  -14.1215  -11.5697 H       1  <0>         0.0621
     56 H13        -9.7852  -18.1871  -11.9462 H       1  <0>         0.0624
     57 H14        -6.9265  -17.4327   -8.8410 H       1  <0>         0.0624
     58 H15       -11.6138  -17.5347  -10.4325 H       1  <0>         0.0643
     59 H16        -8.7702  -16.7683   -7.3165 H       1  <0>         0.0643
     60 H17       -13.5374   -9.7054   -6.7014 H       1  <0>         0.0636
     61 H18        -9.4767  -10.7370   -7.4983 H       1  <0>         0.0636
     62 H19        -6.2399  -12.9783  -12.0698 H       1  <0>         0.0284
     63 H20        -7.6184  -12.7327  -12.3956 H       1  <0>         0.0284
     64 H21        -7.7567  -15.3426  -13.7919 H       1  <0>         0.0284
     65 H22        -6.3720  -15.5893  -13.4647 H       1  <0>         0.0284
     66 H23        -8.3833  -19.2008  -12.9751 H       1  <0>         0.0370
     67 H24        -7.7679  -20.3171  -11.6865 H       1  <0>         0.0370
     68 H25        -6.1456  -21.6142  -11.9803 H       1  <0>         0.0870
     69 H26        -4.9291  -21.4917  -13.3085 H       1  <0>         0.0870
     70 H27        -3.0851  -19.1320  -12.5884 H       1  <0>         0.0874
     71 H28        -3.5886  -18.5495  -10.9654 H       1  <0>         0.0874
     72 H29       -13.3588  -16.9703   -8.2645 H       1  <0>         0.0588
     73 H30       -12.4780  -16.0366   -9.5158 H       1  <0>         0.0588
     74 H31       -13.9119  -14.9799   -7.3343 H       1  <0>         0.0588
     75 H32       -12.1879  -14.8384   -6.8447 H       1  <0>         0.0588
     76 H33        -5.9933  -14.8414   -8.6500 H       1  <0>         0.0514
     77 H34        -6.9146  -13.6126   -9.6562 H       1  <0>         0.0514
     78 H35        -8.3344  -15.2745  -10.8430 H       1  <0>         0.0501
     79 H36        -6.8238  -20.3900  -14.1756 H       1  <0>         0.0907
     80 H37        -4.4472  -17.1524  -12.9454 H       1  <0>         0.0959
     81 H38        -5.0902  -20.1458  -10.7986 H       1  <0>         0.2018
     82 H39        -3.8133  -20.9256  -11.5477 H       1  <0>         0.2018
     83 H40        -4.8740  -19.1061  -14.2557 H       1  <0>         0.2027
     84 H41        -6.2074  -18.1360  -14.1145 H       1  <0>         0.2027
@<TRIPOS>BOND
     1     1    21    1
     2     2    22    1
     3     3    23    1
     4     4     5   ar
     5     4     6   ar
     6     5    21   ar
     7     6    26   ar
     8     7     9   ar
     9     7    24   ar
    10     8    10   ar
    11     8    24   ar
    12     9    25   ar
    13    10    25   ar
    14    11    22   ar
    15    11    27   ar
    16    12    22   ar
    17    12    28   ar
    18    13    14    1
    19    13    30    1
    20    14    30    1
    21    15    31    1
    22    15    33    1
    23    16    31    1
    24    16    36    1
    25    17    32    1
    26    17    36    1
    27    18    19    1
    28    18    40    1
    29    19    41    1
    30    20    26    1
    31    20    38    1
    32    21    23   ar
    33    23    26   ar
    34    24    33    1
    35    25    40    1
    36    27    29   ar
    37    27    42    1
    38    28    29   ar
    39    28    43    1
    40    29    41    1
    41    30    38    1
    42    31    37    1
    43    32    34    1
    44    32    37    1
    45    33    34    2
    46    34    35    1
    47    35    38   am
    48    35    39    2
    49     1    44    1
    50     1    45    1
    51     1    46    1
    52     2    47    1
    53     2    48    1
    54     2    49    1
    55     3    50    1
    56     3    51    1
    57     3    52    1
    58     4    53    1
    59     5    54    1
    60     6    55    1
    61     7    56    1
    62     8    57    1
    63     9    58    1
    64    10    59    1
    65    11    60    1
    66    12    61    1
    67    13    62    1
    68    13    63    1
    69    14    64    1
    70    14    65    1
    71    15    66    1
    72    15    67    1
    73    16    68    1
    74    16    69    1
    75    17    70    1
    76    17    71    1
    77    18    72    1
    78    18    73    1
    79    19    74    1
    80    19    75    1
    81    20    76    1
    82    20    77    1
    83    30    78    1
    84    31    79    1
    85    32    80    1
    86    36    81    1
    87    36    82    1
    88    37    83    1
    89    37    84    1
@<TRIPOS>SUBSTRUCTURE
     1 <0>         1 TEMP              0 ****  ****    0 ROOT

