
##########                                Name:        A7T_342_3G6Z
##########                    Molecular_Weight:             622.634
##########                DOCK_Rotatable_Bonds:                  11
##########                       Formal_Charge:              2.0004
##########                     HBond_Acceptors:                   8
##########                        HBond_Donors:                   4
##########                         Heavy_Atoms:                  43
##########                            HA_RMSDs:               9.773
##########                            HA_RMSDh:               6.532
##########                            HA_RMSDm:               5.291
##########                          Grid_Score:         -187.677124
##########                     Grid_vdw_energy:          -53.926781
##########                      Grid_es_energy:         -133.750336
##########           Internal_energy_repulsive:           48.316090

@<TRIPOS>MOLECULE
A7T_342_3G6Z
 84 89 1 0 0
SMALL
USER_CHARGES


@<TRIPOS>ATOM
      1 C1        -10.3273  -16.8232   -8.9978 C.3     1  <0>        -0.0395
      2 C2         -7.0577  -23.1098  -12.5914 C.3     1  <0>        -0.0396
      3 C3         -7.5196  -17.3258   -9.3444 C.3     1  <0>        -0.0392
      4 C4         -8.8434  -13.3262   -8.5704 C.ar    1  <0>        -0.0612
      5 C5         -9.7603  -14.3758   -8.6427 C.ar    1  <0>        -0.0586
      6 C6         -7.4744  -13.5655   -8.7398 C.ar    1  <0>        -0.0568
      7 C7         -0.8145  -14.8718  -10.4650 C.ar    1  <0>        -0.0519
      8 C8         -1.5672  -15.5078   -8.2587 C.ar    1  <0>        -0.0519
      9 C9         -0.5371  -16.1969  -10.7597 C.ar    1  <0>        -0.0311
     10 C10        -1.2898  -16.8453   -8.5547 C.ar    1  <0>        -0.0311
     11 C11        -4.6711  -22.8192  -13.1940 C.ar    1  <0>        -0.0379
     12 C12        -5.7643  -21.0327  -11.9741 C.ar    1  <0>        -0.0379
     13 C13        -5.5423  -13.7303  -11.6201 C.3     1  <0>        -0.0326
     14 C14        -4.4064  -12.7327  -11.4293 C.3     1  <0>        -0.0326
     15 C15        -0.3991  -12.1298   -9.1085 C.3     1  <0>         0.0216
     16 C16        -0.4742  -10.4334   -7.2814 C.3     1  <0>         0.0109
     17 C17        -2.9983  -10.8143   -6.9253 C.3     1  <0>         0.0151
     18 C18        -0.4314  -18.9660  -11.4380 C.3     1  <0>         0.0780
     19 C19        -1.2850  -20.2184  -11.5483 C.3     1  <0>         0.0782
     20 C20        -5.6069  -15.2301   -9.1994 C.3     1  <0>         0.0406
     21 C21        -9.3349  -15.6787   -8.9076 C.ar    1  <0>        -0.0472
     22 C22        -5.7916  -22.2892  -12.5824 C.ar    1  <0>        -0.0475
     23 C23        -7.9822  -15.9177   -9.0732 C.ar    1  <0>        -0.0429
     24 C24        -1.3210  -14.5150   -9.2247 C.ar    1  <0>        -0.0209
     25 C25        -0.7756  -17.1832   -9.8055 C.ar    1  <0>         0.0763
     26 C26        -7.0526  -14.8708   -8.9809 C.ar    1  <0>        -0.0269
     27 C27        -3.4738  -22.1275  -13.2256 C.ar    1  <0>         0.0726
     28 C28        -4.6117  -20.2497  -11.9547 C.ar    1  <0>         0.0726
     29 C29        -3.3886  -20.7859  -12.5939 C.ar    1  <0>         0.1128
     30 C30        -4.2640  -14.1493  -10.8913 C.3     1  <0>         0.0268
     31 C31        -0.6890  -10.6691   -8.7706 C.3     1  <0>         0.0230
     32 C32        -3.0844  -11.1446   -8.4140 C.3     1  <0>         0.0496
     33 C33        -1.6095  -13.0567   -8.9695 C.2     1  <0>        -0.0210
     34 C34        -2.8566  -12.6175   -8.6426 C.2     1  <0>         0.0709
     35 C35        -3.9678  -13.5714   -8.4348 C.2     1  <0>         0.2490
     36 N1         -1.6046  -10.9009   -6.4858 N.4     1  <0>         0.2352
     37 N2         -2.0600  -10.3670   -9.1019 N.4     1  <0>         0.2425
     38 N3         -4.5834  -14.2138   -9.4472 N.am    1  <0>        -0.2902
     39 O1         -4.3397  -13.7879   -7.2795 O.2     1  <0>        -0.2701
     40 O2         -0.5014  -18.4876  -10.0943 O.3     1  <0>        -0.3424
     41 O3         -2.2236  -20.0730  -12.6075 O.3     1  <0>        -0.3395
     42 Cl1        -2.0627  -22.8739  -14.0499 Cl      1  <0>        -0.0808
     43 Cl2        -4.6158  -18.6348  -11.1624 Cl      1  <0>        -0.0808
     44 H1        -10.6684  -16.9323  -10.0379 H       1  <0>         0.0278
     45 H2         -9.8427  -17.7551   -8.6713 H       1  <0>         0.0278
     46 H3        -11.1904  -16.6118   -8.3493 H       1  <0>         0.0278
     47 H4         -7.0864  -23.7505  -11.6976 H       1  <0>         0.0278
     48 H5         -7.9293  -22.4388  -12.5895 H       1  <0>         0.0278
     49 H6         -7.0806  -23.7385  -13.4938 H       1  <0>         0.0278
     50 H7         -7.4985  -17.5028  -10.4298 H       1  <0>         0.0278
     51 H8         -6.5101  -17.4660   -8.9305 H       1  <0>         0.0278
     52 H9         -8.2124  -18.0367   -8.8704 H       1  <0>         0.0278
     53 H10        -9.1925  -12.3216   -8.3824 H       1  <0>         0.0618
     54 H11       -10.8112  -14.1778   -8.4917 H       1  <0>         0.0620
     55 H12        -6.7614  -12.7562   -8.6848 H       1  <0>         0.0621
     56 H13        -0.6346  -14.1095  -11.2086 H       1  <0>         0.0624
     57 H14        -1.9685  -15.2377   -7.2931 H       1  <0>         0.0624
     58 H15        -0.1370  -16.4643  -11.7265 H       1  <0>         0.0643
     59 H16        -1.4730  -17.6133   -7.8178 H       1  <0>         0.0643
     60 H17        -4.7317  -23.7932  -13.6565 H       1  <0>         0.0636
     61 H18        -6.6618  -20.6570  -11.5053 H       1  <0>         0.0636
     62 H19        -6.5895  -13.7049  -11.2841 H       1  <0>         0.0284
     63 H20        -6.0137  -14.1216  -12.5337 H       1  <0>         0.0284
     64 H21        -3.8045  -12.1812  -12.1665 H       1  <0>         0.0284
     65 H22        -4.3829  -11.7626  -10.9113 H       1  <0>         0.0284
     66 H23        -0.0561  -12.1745  -10.1527 H       1  <0>         0.0370
     67 H24         0.3824  -12.4878   -8.4221 H       1  <0>         0.0370
     68 H25         0.4274  -10.9787   -6.9656 H       1  <0>         0.0870
     69 H26        -0.3466   -9.3542   -7.1110 H       1  <0>         0.0870
     70 H27        -3.3741   -9.7948   -6.7537 H       1  <0>         0.0874
     71 H28        -3.6078  -11.5307   -6.3550 H       1  <0>         0.0874
     72 H29         0.6116  -19.2019  -11.6958 H       1  <0>         0.0588
     73 H30        -0.8082  -18.1964  -12.1277 H       1  <0>         0.0588
     74 H31        -0.6371  -21.0837  -11.7522 H       1  <0>         0.0588
     75 H32        -1.8244  -20.3758  -10.6028 H       1  <0>         0.0588
     76 H33        -5.2909  -15.7474   -8.2814 H       1  <0>         0.0514
     77 H34        -5.5967  -15.8797  -10.0871 H       1  <0>         0.0514
     78 H35        -3.4946  -14.9294  -10.9892 H       1  <0>         0.0501
     79 H36        -0.0117  -10.0215   -9.3466 H       1  <0>         0.0907
     80 H37        -4.0838  -10.8949   -8.8000 H       1  <0>         0.0959
     81 H38        -1.4373  -11.8771   -6.3477 H       1  <0>         0.2018
     82 H39        -1.5658  -10.3653   -5.6422 H       1  <0>         0.2018
     83 H40        -2.2145   -9.4062   -8.8716 H       1  <0>         0.2027
     84 H41        -2.1707  -10.5343  -10.0816 H       1  <0>         0.2027
@<TRIPOS>BOND
     1     1    21    1
     2     2    22    1
     3     3    23    1
     4     4     5   ar
     5     4     6   ar
     6     5    21   ar
     7     6    26   ar
     8     7     9   ar
     9     7    24   ar
    10     8    10   ar
    11     8    24   ar
    12     9    25   ar
    13    10    25   ar
    14    11    22   ar
    15    11    27   ar
    16    12    22   ar
    17    12    28   ar
    18    13    14    1
    19    13    30    1
    20    14    30    1
    21    15    31    1
    22    15    33    1
    23    16    31    1
    24    16    36    1
    25    17    32    1
    26    17    36    1
    27    18    19    1
    28    18    40    1
    29    19    41    1
    30    20    26    1
    31    20    38    1
    32    21    23   ar
    33    23    26   ar
    34    24    33    1
    35    25    40    1
    36    27    29   ar
    37    27    42    1
    38    28    29   ar
    39    28    43    1
    40    29    41    1
    41    30    38    1
    42    31    37    1
    43    32    34    1
    44    32    37    1
    45    33    34    2
    46    34    35    1
    47    35    38   am
    48    35    39    2
    49     1    44    1
    50     1    45    1
    51     1    46    1
    52     2    47    1
    53     2    48    1
    54     2    49    1
    55     3    50    1
    56     3    51    1
    57     3    52    1
    58     4    53    1
    59     5    54    1
    60     6    55    1
    61     7    56    1
    62     8    57    1
    63     9    58    1
    64    10    59    1
    65    11    60    1
    66    12    61    1
    67    13    62    1
    68    13    63    1
    69    14    64    1
    70    14    65    1
    71    15    66    1
    72    15    67    1
    73    16    68    1
    74    16    69    1
    75    17    70    1
    76    17    71    1
    77    18    72    1
    78    18    73    1
    79    19    74    1
    80    19    75    1
    81    20    76    1
    82    20    77    1
    83    30    78    1
    84    31    79    1
    85    32    80    1
    86    36    81    1
    87    36    82    1
    88    37    83    1
    89    37    84    1
@<TRIPOS>SUBSTRUCTURE
     1 <0>         1 TEMP              0 ****  ****    0 ROOT

