
##########                                Name:        A7T_342_3G6Z
##########                    Molecular_Weight:             622.634
##########                DOCK_Rotatable_Bonds:                  11
##########                       Formal_Charge:              2.0004
##########                     HBond_Acceptors:                   8
##########                        HBond_Donors:                   4
##########                         Heavy_Atoms:                  43
##########                            HA_RMSDs:               0.359
##########                            HA_RMSDh:               0.359
##########                            HA_RMSDm:               0.359
##########                          Grid_Score:         -221.994659
##########                     Grid_vdw_energy:          -77.437668
##########                      Grid_es_energy:         -144.556992
##########           Internal_energy_repulsive:           63.524078

@<TRIPOS>MOLECULE
A7T_342_3G6Z
 84 89 1 0 0
SMALL
USER_CHARGES


@<TRIPOS>ATOM
      1 C1         -3.6794  -10.8098   -7.4517 C.3     1  <0>        -0.0395
      2 C2        -10.6705   -9.0829   -6.7278 C.3     1  <0>        -0.0396
      3 C3         -5.9342  -12.5884   -7.5426 C.3     1  <0>        -0.0392
      4 C4         -2.8686  -12.9524  -10.5121 C.ar    1  <0>        -0.0612
      5 C5         -2.7710  -11.9908   -9.5053 C.ar    1  <0>        -0.0586
      6 C6         -3.9658  -13.8206  -10.5616 C.ar    1  <0>        -0.0568
      7 C7         -9.6919  -18.1430  -10.9873 C.ar    1  <0>        -0.0519
      8 C8         -8.0808  -17.7124   -9.2388 C.ar    1  <0>        -0.0519
      9 C9        -10.7246  -17.8002  -10.1295 C.ar    1  <0>        -0.0311
     10 C10        -9.1209  -17.3643   -8.3724 C.ar    1  <0>        -0.0311
     11 C11       -12.4615  -10.6910   -7.3194 C.ar    1  <0>        -0.0379
     12 C12       -10.1610  -11.3642   -7.6787 C.ar    1  <0>        -0.0379
     13 C13        -7.1989  -13.8050  -12.0867 C.3     1  <0>        -0.0326
     14 C14        -7.2003  -15.0838  -12.9153 C.3     1  <0>        -0.0326
     15 C15        -7.6456  -19.6642  -12.4544 C.3     1  <0>         0.0216
     16 C16        -5.6300  -21.1128  -12.7005 C.3     1  <0>         0.0109
     17 C17        -4.0658  -19.1910  -11.9913 C.3     1  <0>         0.0151
     18 C18       -12.6811  -16.5165   -8.4528 C.3     1  <0>         0.0780
     19 C19       -12.8599  -15.1430   -7.8278 C.3     1  <0>         0.0782
     20 C20        -6.1819  -14.5702   -9.5631 C.3     1  <0>         0.0406
     21 C21        -3.7739  -11.8599   -8.5431 C.ar    1  <0>        -0.0472
     22 C22       -11.1063  -10.4259   -7.2598 C.ar    1  <0>        -0.0475
     23 C23        -4.8581  -12.7183   -8.5891 C.ar    1  <0>        -0.0429
     24 C24        -8.3747  -18.1094  -10.5561 C.ar    1  <0>        -0.0209
     25 C25       -10.4392  -17.4100   -8.8231 C.ar    1  <0>         0.0763
     26 C26        -4.9524  -13.7013   -9.5858 C.ar    1  <0>        -0.0269
     27 C27       -12.9379  -11.8996   -7.7937 C.ar    1  <0>         0.0726
     28 C28       -10.5333  -12.6103   -8.1795 C.ar    1  <0>         0.0726
     29 C29       -11.9761  -12.9342   -8.2529 C.ar    1  <0>         0.1128
     30 C30        -7.5866  -15.1382  -11.4442 C.3     1  <0>         0.0268
     31 C31        -6.5154  -20.0842  -13.3915 C.3     1  <0>         0.0230
     32 C32        -5.0783  -18.2335  -12.6164 C.3     1  <0>         0.0496
     33 C33        -7.2964  -18.4862  -11.5411 C.2     1  <0>        -0.0210
     34 C34        -6.1109  -17.8182  -11.5992 C.2     1  <0>         0.0709
     35 C35        -5.7949  -16.7458  -10.6306 C.2     1  <0>         0.2490
     36 N1         -4.6991  -20.4913  -11.7644 N.4     1  <0>         0.2352
     37 N2         -5.7204  -18.9282  -13.7265 N.4     1  <0>         0.2425
     38 N3         -6.4473  -15.5667  -10.6015 N.am    1  <0>        -0.2902
     39 O1         -4.8957  -16.9484   -9.8118 O.2     1  <0>        -0.2701
     40 O2        -11.4552  -17.0738   -7.9777 O.3     1  <0>        -0.3424
     41 O3        -12.4102  -14.1384   -8.7293 O.3     1  <0>        -0.3395
     42 Cl1       -14.7133  -12.1685   -7.8539 Cl      1  <0>        -0.0808
     43 Cl2        -9.2861  -13.7925   -8.7111 Cl      1  <0>        -0.0808
     44 H1         -4.1582   -9.8804   -7.7939 H       1  <0>         0.0278
     45 H2         -4.1897  -11.1737   -6.5478 H       1  <0>         0.0278
     46 H3         -2.6216  -10.6140   -7.2220 H       1  <0>         0.0278
     47 H4        -10.5292   -9.1475   -5.6388 H       1  <0>         0.0278
     48 H5         -9.7229   -8.7902   -7.2037 H       1  <0>         0.0278
     49 H6        -11.4417   -8.3316   -6.9534 H       1  <0>         0.0278
     50 H7         -6.7056  -11.8874   -7.8941 H       1  <0>         0.0278
     51 H8         -6.3895  -13.5732   -7.3608 H       1  <0>         0.0278
     52 H9         -5.4933  -12.2100   -6.6086 H       1  <0>         0.0278
     53 H10        -2.0919  -13.0273  -11.2586 H       1  <0>         0.0618
     54 H11        -1.9095  -11.3405   -9.4701 H       1  <0>         0.0620
     55 H12        -4.0454  -14.5661  -11.3390 H       1  <0>         0.0621
     56 H13        -9.9153  -18.4392  -12.0016 H       1  <0>         0.0624
     57 H14        -7.0563  -17.6769   -8.8985 H       1  <0>         0.0624
     58 H15       -11.7479  -17.8354  -10.4727 H       1  <0>         0.0643
     59 H16        -8.9042  -17.0614   -7.3586 H       1  <0>         0.0643
     60 H17       -13.1627   -9.9390   -6.9888 H       1  <0>         0.0636
     61 H18        -9.1117  -11.1174   -7.6128 H       1  <0>         0.0636
     62 H19        -6.3895  -13.0983  -11.8510 H       1  <0>         0.0284
     63 H20        -7.7641  -12.8685  -12.2035 H       1  <0>         0.0284
     64 H21        -7.7693  -15.3539  -13.8171 H       1  <0>         0.0284
     65 H22        -6.3885  -15.5847  -13.4630 H       1  <0>         0.0284
     66 H23        -8.5068  -19.3702  -13.0724 H       1  <0>         0.0370
     67 H24        -7.8947  -20.5251  -11.8166 H       1  <0>         0.0370
     68 H25        -6.2717  -21.8130  -12.1456 H       1  <0>         0.0870
     69 H26        -5.0519  -21.6504  -13.4665 H       1  <0>         0.0870
     70 H27        -3.2095  -19.3139  -12.6707 H       1  <0>         0.0874
     71 H28        -3.7171  -18.7808  -11.0321 H       1  <0>         0.0874
     72 H29       -13.5212  -17.1674   -8.1689 H       1  <0>         0.0588
     73 H30       -12.6494  -16.4260   -9.5486 H       1  <0>         0.0588
     74 H31       -13.9245  -14.9807   -7.6036 H       1  <0>         0.0588
     75 H32       -12.2741  -15.0868   -6.8985 H       1  <0>         0.0588
     76 H33        -6.1245  -15.1356   -8.6213 H       1  <0>         0.0514
     77 H34        -7.0335  -13.8749   -9.5988 H       1  <0>         0.0514
     78 H35        -8.4445  -15.5534  -10.8950 H       1  <0>         0.0501
     79 H36        -6.9444  -20.5227  -14.3045 H       1  <0>         0.0907
     80 H37        -4.5706  -17.3243  -12.9709 H       1  <0>         0.0959
     81 H38        -5.2192  -20.3812  -10.9174 H       1  <0>         0.2018
     82 H39        -3.9405  -21.1382  -11.6866 H       1  <0>         0.2018
     83 H40        -4.9944  -19.2373  -14.3408 H       1  <0>         0.2027
     84 H41        -6.3280  -18.2717  -14.1737 H       1  <0>         0.2027
@<TRIPOS>BOND
     1     1    21    1
     2     2    22    1
     3     3    23    1
     4     4     5   ar
     5     4     6   ar
     6     5    21   ar
     7     6    26   ar
     8     7     9   ar
     9     7    24   ar
    10     8    10   ar
    11     8    24   ar
    12     9    25   ar
    13    10    25   ar
    14    11    22   ar
    15    11    27   ar
    16    12    22   ar
    17    12    28   ar
    18    13    14    1
    19    13    30    1
    20    14    30    1
    21    15    31    1
    22    15    33    1
    23    16    31    1
    24    16    36    1
    25    17    32    1
    26    17    36    1
    27    18    19    1
    28    18    40    1
    29    19    41    1
    30    20    26    1
    31    20    38    1
    32    21    23   ar
    33    23    26   ar
    34    24    33    1
    35    25    40    1
    36    27    29   ar
    37    27    42    1
    38    28    29   ar
    39    28    43    1
    40    29    41    1
    41    30    38    1
    42    31    37    1
    43    32    34    1
    44    32    37    1
    45    33    34    2
    46    34    35    1
    47    35    38   am
    48    35    39    2
    49     1    44    1
    50     1    45    1
    51     1    46    1
    52     2    47    1
    53     2    48    1
    54     2    49    1
    55     3    50    1
    56     3    51    1
    57     3    52    1
    58     4    53    1
    59     5    54    1
    60     6    55    1
    61     7    56    1
    62     8    57    1
    63     9    58    1
    64    10    59    1
    65    11    60    1
    66    12    61    1
    67    13    62    1
    68    13    63    1
    69    14    64    1
    70    14    65    1
    71    15    66    1
    72    15    67    1
    73    16    68    1
    74    16    69    1
    75    17    70    1
    76    17    71    1
    77    18    72    1
    78    18    73    1
    79    19    74    1
    80    19    75    1
    81    20    76    1
    82    20    77    1
    83    30    78    1
    84    31    79    1
    85    32    80    1
    86    36    81    1
    87    36    82    1
    88    37    83    1
    89    37    84    1
@<TRIPOS>SUBSTRUCTURE
     1 <0>         1 TEMP              0 ****  ****    0 ROOT

