
##########                                Name:        A7T_342_3G6Z
##########                    Molecular_Weight:             622.634
##########                DOCK_Rotatable_Bonds:                  11
##########                       Formal_Charge:              2.0004
##########                     HBond_Acceptors:                   8
##########                        HBond_Donors:                   4
##########                         Heavy_Atoms:                  43
##########                            HA_RMSDs:               0.288
##########                            HA_RMSDh:               0.288
##########                            HA_RMSDm:               0.288
##########                          Grid_Score:         -226.754578
##########                     Grid_vdw_energy:          -82.665939
##########                      Grid_es_energy:         -144.088638
##########           Internal_energy_repulsive:           61.218597

@<TRIPOS>MOLECULE
A7T_342_3G6Z
 84 89 1 0 0
SMALL
USER_CHARGES


@<TRIPOS>ATOM
      1 C1         -3.4552  -10.5818   -7.1460 C.3     1  <0>        -0.0395
      2 C2        -11.0757   -8.6301   -6.2011 C.3     1  <0>        -0.0396
      3 C3         -5.7299  -12.3265   -7.3404 C.3     1  <0>        -0.0392
      4 C4         -2.6265  -12.6091  -10.2793 C.ar    1  <0>        -0.0612
      5 C5         -2.5317  -11.6903   -9.2330 C.ar    1  <0>        -0.0586
      6 C6         -3.7333  -13.4605  -10.3793 C.ar    1  <0>        -0.0568
      7 C7         -9.4949  -17.3722  -11.0142 C.ar    1  <0>        -0.0519
      8 C8         -8.0619  -17.7608   -9.1079 C.ar    1  <0>        -0.0519
      9 C9        -10.5341  -17.0176  -10.1692 C.ar    1  <0>        -0.0311
     10 C10        -9.1083  -17.4015   -8.2538 C.ar    1  <0>        -0.0311
     11 C11       -12.7571  -10.3407   -6.8258 C.ar    1  <0>        -0.0379
     12 C12       -10.4334  -10.7793   -7.3575 C.ar    1  <0>        -0.0379
     13 C13        -6.5345  -13.6989  -12.3921 C.3     1  <0>        -0.0326
     14 C14        -6.9377  -15.0843  -12.8818 C.3     1  <0>        -0.0326
     15 C15        -7.5181  -19.2647  -12.4235 C.3     1  <0>         0.0216
     16 C16        -5.5178  -20.7346  -12.6677 C.3     1  <0>         0.0109
     17 C17        -3.9422  -18.8538  -11.8786 C.3     1  <0>         0.0151
     18 C18       -12.5543  -16.0616   -8.4415 C.3     1  <0>         0.0780
     19 C19       -12.7710  -14.7704   -7.6701 C.3     1  <0>         0.0782
     20 C20        -5.9724  -14.2216   -9.4430 C.3     1  <0>         0.0406
     21 C21        -3.5467  -11.5856   -8.2804 C.ar    1  <0>        -0.0472
     22 C22       -11.4278   -9.9623   -6.8158 C.ar    1  <0>        -0.0475
     23 C23        -4.6404  -12.4277   -8.3762 C.ar    1  <0>        -0.0429
     24 C24        -8.2637  -17.7489  -10.5002 C.ar    1  <0>        -0.0209
     25 C25       -10.3406  -17.0311   -8.7899 C.ar    1  <0>         0.0763
     26 C26        -4.7323  -13.3683   -9.4133 C.ar    1  <0>        -0.0269
     27 C27       -13.1575  -11.5474   -7.3703 C.ar    1  <0>         0.0726
     28 C28       -10.7287  -12.0119   -7.9366 C.ar    1  <0>         0.0726
     29 C29       -12.1410  -12.4554   -7.9606 C.ar    1  <0>         0.1128
     30 C30        -7.2413  -14.6735  -11.4481 C.3     1  <0>         0.0268
     31 C31        -6.3753  -19.6764  -13.3490 C.3     1  <0>         0.0230
     32 C32        -4.9290  -17.8664  -12.4984 C.3     1  <0>         0.0496
     33 C33        -7.1712  -18.1155  -11.4734 C.2     1  <0>        -0.0210
     34 C34        -5.9759  -17.4629  -11.4911 C.2     1  <0>         0.0709
     35 C35        -5.6647  -16.4202  -10.4891 C.2     1  <0>         0.2490
     36 N1         -4.5973  -20.1505  -11.6979 N.4     1  <0>         0.2352
     37 N2         -5.5583  -18.5234  -13.6384 N.4     1  <0>         0.2425
     38 N3         -6.2210  -15.1927  -10.5094 N.am    1  <0>        -0.2902
     39 O1         -4.8626  -16.6950   -9.5940 O.2     1  <0>        -0.2701
     40 O2        -11.3635  -16.6836   -7.9574 O.3     1  <0>        -0.3424
     41 O3        -12.4998  -13.6537   -8.5089 O.3     1  <0>        -0.3395
     42 Cl1       -14.9046  -11.9665   -7.3593 Cl      1  <0>        -0.0808
     43 Cl2        -9.4202  -13.0359   -8.6258 Cl      1  <0>        -0.0808
     44 H1         -3.9177   -9.6333   -7.4568 H       1  <0>         0.0278
     45 H2         -3.9829  -10.9755   -6.2648 H       1  <0>         0.0278
     46 H3         -2.3985  -10.4090   -6.8939 H       1  <0>         0.0278
     47 H4        -10.8657   -8.7642   -5.1296 H       1  <0>         0.0278
     48 H5        -10.1857   -8.2199   -6.7006 H       1  <0>         0.0278
     49 H6        -11.9191   -7.9350   -6.3251 H       1  <0>         0.0278
     50 H7         -6.4875  -11.6021   -7.6739 H       1  <0>         0.0278
     51 H8         -6.1996  -13.3120   -7.2051 H       1  <0>         0.0278
     52 H9         -5.2979  -11.9919   -6.3858 H       1  <0>         0.0278
     53 H10        -1.8400  -12.6636  -11.0174 H       1  <0>         0.0618
     54 H11        -1.6629  -11.0530   -9.1595 H       1  <0>         0.0620
     55 H12        -3.8107  -14.1729  -11.1873 H       1  <0>         0.0621
     56 H13        -9.6455  -17.3549  -12.0835 H       1  <0>         0.0624
     57 H14        -7.1030  -18.0461   -8.7010 H       1  <0>         0.0624
     58 H15       -11.4915  -16.7314  -10.5788 H       1  <0>         0.0643
     59 H16        -8.9627  -17.4108   -7.1837 H       1  <0>         0.0643
     60 H17       -13.4983   -9.6807   -6.3998 H       1  <0>         0.0636
     61 H18        -9.4064  -10.4465   -7.3267 H       1  <0>         0.0636
     62 H19        -5.5486  -13.2156  -12.3250 H       1  <0>         0.0284
     63 H20        -6.8224  -12.6970  -12.7433 H       1  <0>         0.0284
     64 H21        -7.6088  -15.3897  -13.6981 H       1  <0>         0.0284
     65 H22        -6.3293  -15.9106  -13.2779 H       1  <0>         0.0284
     66 H23        -8.3628  -18.9429  -13.0504 H       1  <0>         0.0370
     67 H24        -7.7914  -20.1381  -11.8133 H       1  <0>         0.0370
     68 H25        -6.1798  -21.4397  -12.1438 H       1  <0>         0.0870
     69 H26        -4.9319  -21.2605  -13.4360 H       1  <0>         0.0870
     70 H27        -3.0743  -18.9712  -12.5441 H       1  <0>         0.0874
     71 H28        -3.6070  -18.4732  -10.9025 H       1  <0>         0.0874
     72 H29       -13.4126  -16.7333   -8.2925 H       1  <0>         0.0588
     73 H30       -12.4503  -15.8418   -9.5143 H       1  <0>         0.0588
     74 H31       -13.8147  -14.7225   -7.3262 H       1  <0>         0.0588
     75 H32       -12.0950  -14.7468   -6.8026 H       1  <0>         0.0588
     76 H33        -5.9482  -14.8074   -8.5122 H       1  <0>         0.0514
     77 H34        -6.8142  -13.5149   -9.4873 H       1  <0>         0.0514
     78 H35        -8.1488  -14.6846  -10.8265 H       1  <0>         0.0501
     79 H36        -6.7920  -20.0853  -14.2813 H       1  <0>         0.0907
     80 H37        -4.4021  -16.9556  -12.8192 H       1  <0>         0.0959
     81 H38        -5.1326  -20.0548  -10.8586 H       1  <0>         0.2018
     82 H39        -3.8492  -20.8097  -11.6220 H       1  <0>         0.2018
     83 H40        -4.8244  -18.8268  -14.2462 H       1  <0>         0.2027
     84 H41        -6.1479  -17.8472  -14.0802 H       1  <0>         0.2027
@<TRIPOS>BOND
     1     1    21    1
     2     2    22    1
     3     3    23    1
     4     4     5   ar
     5     4     6   ar
     6     5    21   ar
     7     6    26   ar
     8     7     9   ar
     9     7    24   ar
    10     8    10   ar
    11     8    24   ar
    12     9    25   ar
    13    10    25   ar
    14    11    22   ar
    15    11    27   ar
    16    12    22   ar
    17    12    28   ar
    18    13    14    1
    19    13    30    1
    20    14    30    1
    21    15    31    1
    22    15    33    1
    23    16    31    1
    24    16    36    1
    25    17    32    1
    26    17    36    1
    27    18    19    1
    28    18    40    1
    29    19    41    1
    30    20    26    1
    31    20    38    1
    32    21    23   ar
    33    23    26   ar
    34    24    33    1
    35    25    40    1
    36    27    29   ar
    37    27    42    1
    38    28    29   ar
    39    28    43    1
    40    29    41    1
    41    30    38    1
    42    31    37    1
    43    32    34    1
    44    32    37    1
    45    33    34    2
    46    34    35    1
    47    35    38   am
    48    35    39    2
    49     1    44    1
    50     1    45    1
    51     1    46    1
    52     2    47    1
    53     2    48    1
    54     2    49    1
    55     3    50    1
    56     3    51    1
    57     3    52    1
    58     4    53    1
    59     5    54    1
    60     6    55    1
    61     7    56    1
    62     8    57    1
    63     9    58    1
    64    10    59    1
    65    11    60    1
    66    12    61    1
    67    13    62    1
    68    13    63    1
    69    14    64    1
    70    14    65    1
    71    15    66    1
    72    15    67    1
    73    16    68    1
    74    16    69    1
    75    17    70    1
    76    17    71    1
    77    18    72    1
    78    18    73    1
    79    19    74    1
    80    19    75    1
    81    20    76    1
    82    20    77    1
    83    30    78    1
    84    31    79    1
    85    32    80    1
    86    36    81    1
    87    36    82    1
    88    37    83    1
    89    37    84    1
@<TRIPOS>SUBSTRUCTURE
     1 <0>         1 TEMP              0 ****  ****    0 ROOT

