
##########                                Name:        A7T_342_3G6Z
##########                    Molecular_Weight:             622.634
##########                DOCK_Rotatable_Bonds:                  11
##########                       Formal_Charge:              2.0004
##########                     HBond_Acceptors:                   8
##########                        HBond_Donors:                   4
##########                         Heavy_Atoms:                  43
##########                            HA_RMSDs:               0.268
##########                            HA_RMSDh:               0.268
##########                            HA_RMSDm:               0.268
##########                          Grid_Score:         -221.974213
##########                     Grid_vdw_energy:          -76.351524
##########                      Grid_es_energy:         -145.622696
##########           Internal_energy_repulsive:           62.984138

@<TRIPOS>MOLECULE
A7T_342_3G6Z
 84 89 1 0 0
SMALL
USER_CHARGES


@<TRIPOS>ATOM
      1 C1         -3.0989  -10.7872   -7.2173 C.3     1  <0>        -0.0395
      2 C2        -10.5095   -8.7994   -6.1873 C.3     1  <0>        -0.0396
      3 C3         -5.3314  -12.5951   -7.2761 C.3     1  <0>        -0.0392
      4 C4         -2.8880  -12.1827  -10.7700 C.ar    1  <0>        -0.0612
      5 C5         -2.5995  -11.4583   -9.6126 C.ar    1  <0>        -0.0586
      6 C6         -3.9753  -13.0640  -10.8043 C.ar    1  <0>        -0.0568
      7 C7         -9.4498  -17.5186  -11.0754 C.ar    1  <0>        -0.0519
      8 C8         -7.8711  -17.3335   -9.2554 C.ar    1  <0>        -0.0519
      9 C9        -10.4823  -17.1565  -10.2254 C.ar    1  <0>        -0.0311
     10 C10        -8.9110  -16.9661   -8.3969 C.ar    1  <0>        -0.0311
     11 C11       -12.4094  -10.2735   -6.7884 C.ar    1  <0>        -0.0379
     12 C12       -10.1734  -10.9970   -7.3816 C.ar    1  <0>        -0.0379
     13 C13        -6.9309  -13.5705  -12.3775 C.3     1  <0>        -0.0326
     14 C14        -7.1669  -14.9716  -12.9281 C.3     1  <0>        -0.0326
     15 C15        -7.4223  -19.1890  -12.4894 C.3     1  <0>         0.0216
     16 C16        -5.4151  -20.6523  -12.7169 C.3     1  <0>         0.0109
     17 C17        -3.8415  -18.7356  -12.0150 C.3     1  <0>         0.0151
     18 C18       -12.4529  -15.9730   -8.5368 C.3     1  <0>         0.0780
     19 C19       -12.7845  -14.7371   -7.7172 C.3     1  <0>         0.0782
     20 C20        -5.9613  -14.1018   -9.6007 C.3     1  <0>         0.0406
     21 C21        -3.4006  -11.5796   -8.4759 C.ar    1  <0>        -0.0472
     22 C22       -11.0427  -10.0675   -6.8071 C.ar    1  <0>        -0.0475
     23 C23        -4.4744  -12.4515   -8.5069 C.ar    1  <0>        -0.0429
     24 C24        -8.1491  -17.6160  -10.6054 C.ar    1  <0>        -0.0209
     25 C25       -10.2130  -16.8793   -8.8872 C.ar    1  <0>         0.0763
     26 C26        -4.7578  -13.1989   -9.6601 C.ar    1  <0>        -0.0269
     27 C27       -12.9728  -11.4119   -7.3355 C.ar    1  <0>         0.0726
     28 C28       -10.6368  -12.1740   -7.9662 C.ar    1  <0>         0.0726
     29 C29       -12.0943  -12.4338   -7.9601 C.ar    1  <0>         0.1128
     30 C30        -7.3984  -14.6937  -11.4498 C.3     1  <0>         0.0268
     31 C31        -6.2911  -19.6231  -13.4189 C.3     1  <0>         0.0230
     32 C32        -4.8452  -17.7761  -12.6511 C.3     1  <0>         0.0496
     33 C33        -7.0693  -18.0068  -11.5832 C.2     1  <0>        -0.0210
     34 C34        -5.8792  -17.3469  -11.6412 C.2     1  <0>         0.0709
     35 C35        -5.5603  -16.2696  -10.6790 C.2     1  <0>         0.2490
     36 N1         -4.4840  -20.0301  -11.7814 N.4     1  <0>         0.2352
     37 N2         -5.4873  -18.4746  -13.7589 N.4     1  <0>         0.2425
     38 N3         -6.2326  -15.1023  -10.6338 N.am    1  <0>        -0.2902
     39 O1         -4.6391  -16.4566   -9.8812 O.2     1  <0>        -0.2701
     40 O2        -11.2290  -16.5242   -8.0496 O.3     1  <0>        -0.3424
     41 O3        -12.6156  -13.5692   -8.5120 O.3     1  <0>        -0.3395
     42 Cl1       -14.7583  -11.6053   -7.2860 Cl      1  <0>        -0.0808
     43 Cl2        -9.4858  -13.3469   -8.6980 Cl      1  <0>        -0.0808
     44 H1         -3.6333   -9.8263   -7.2515 H       1  <0>         0.0278
     45 H2         -3.4280  -11.3585   -6.3368 H       1  <0>         0.0278
     46 H3         -2.0165  -10.6025   -7.1511 H       1  <0>         0.0278
     47 H4        -10.2936   -8.9735   -5.1228 H       1  <0>         0.0278
     48 H5         -9.5861   -8.4990   -6.7042 H       1  <0>         0.0278
     49 H6        -11.2600   -8.0009   -6.2833 H       1  <0>         0.0278
     50 H7         -6.1549  -11.8669   -7.3150 H       1  <0>         0.0278
     51 H8         -5.7446  -13.6137   -7.2339 H       1  <0>         0.0278
     52 H9         -4.7203  -12.4098   -6.3805 H       1  <0>         0.0278
     53 H10        -2.2677  -12.0626  -11.6459 H       1  <0>         0.0618
     54 H11        -1.7464  -10.7962   -9.5961 H       1  <0>         0.0620
     55 H12        -4.2022  -13.6265  -11.6979 H       1  <0>         0.0621
     56 H13        -9.6601  -17.7271  -12.1139 H       1  <0>         0.0624
     57 H14        -6.8590  -17.4002   -8.8844 H       1  <0>         0.0624
     58 H15       -11.4932  -17.0894  -10.5994 H       1  <0>         0.0643
     59 H16        -8.7067  -16.7505   -7.3585 H       1  <0>         0.0643
     60 H17       -13.0502   -9.5303   -6.3374 H       1  <0>         0.0636
     61 H18        -9.1120  -10.7981   -7.3725 H       1  <0>         0.0636
     62 H19        -6.0255  -12.9463  -12.3561 H       1  <0>         0.0284
     63 H20        -7.3943  -12.6065  -12.6343 H       1  <0>         0.0284
     64 H21        -7.8557  -15.3297  -13.7074 H       1  <0>         0.0284
     65 H22        -6.4807  -15.6711  -13.4279 H       1  <0>         0.0284
     66 H23        -8.2791  -18.8940  -13.1131 H       1  <0>         0.0370
     67 H24        -7.6795  -20.0438  -11.8466 H       1  <0>         0.0370
     68 H25        -6.0636  -21.3444  -12.1596 H       1  <0>         0.0870
     69 H26        -4.8375  -21.1992  -13.4767 H       1  <0>         0.0870
     70 H27        -2.9833  -18.8689  -12.6900 H       1  <0>         0.0874
     71 H28        -3.4940  -18.3207  -11.0574 H       1  <0>         0.0874
     72 H29       -13.2605  -16.7134   -8.4382 H       1  <0>         0.0588
     73 H30       -12.3425  -15.6988   -9.5964 H       1  <0>         0.0588
     74 H31       -13.8281  -14.7965   -7.3746 H       1  <0>         0.0588
     75 H32       -12.1128  -14.6860   -6.8476 H       1  <0>         0.0588
     76 H33        -5.8575  -14.6682   -8.6635 H       1  <0>         0.0514
     77 H34        -6.8326  -13.4305   -9.6060 H       1  <0>         0.0514
     78 H35        -8.2350  -14.8789  -10.7600 H       1  <0>         0.0501
     79 H36        -6.7192  -20.0653  -14.3305 H       1  <0>         0.0907
     80 H37        -4.3302  -16.8727  -13.0100 H       1  <0>         0.0959
     81 H38        -5.0069  -19.9106  -10.9374 H       1  <0>         0.2018
     82 H39        -3.7299  -20.6813  -11.6959 H       1  <0>         0.2018
     83 H40        -4.7608  -18.7928  -14.3680 H       1  <0>         0.2027
     84 H41        -6.0888  -17.8174  -14.2132 H       1  <0>         0.2027
@<TRIPOS>BOND
     1     1    21    1
     2     2    22    1
     3     3    23    1
     4     4     5   ar
     5     4     6   ar
     6     5    21   ar
     7     6    26   ar
     8     7     9   ar
     9     7    24   ar
    10     8    10   ar
    11     8    24   ar
    12     9    25   ar
    13    10    25   ar
    14    11    22   ar
    15    11    27   ar
    16    12    22   ar
    17    12    28   ar
    18    13    14    1
    19    13    30    1
    20    14    30    1
    21    15    31    1
    22    15    33    1
    23    16    31    1
    24    16    36    1
    25    17    32    1
    26    17    36    1
    27    18    19    1
    28    18    40    1
    29    19    41    1
    30    20    26    1
    31    20    38    1
    32    21    23   ar
    33    23    26   ar
    34    24    33    1
    35    25    40    1
    36    27    29   ar
    37    27    42    1
    38    28    29   ar
    39    28    43    1
    40    29    41    1
    41    30    38    1
    42    31    37    1
    43    32    34    1
    44    32    37    1
    45    33    34    2
    46    34    35    1
    47    35    38   am
    48    35    39    2
    49     1    44    1
    50     1    45    1
    51     1    46    1
    52     2    47    1
    53     2    48    1
    54     2    49    1
    55     3    50    1
    56     3    51    1
    57     3    52    1
    58     4    53    1
    59     5    54    1
    60     6    55    1
    61     7    56    1
    62     8    57    1
    63     9    58    1
    64    10    59    1
    65    11    60    1
    66    12    61    1
    67    13    62    1
    68    13    63    1
    69    14    64    1
    70    14    65    1
    71    15    66    1
    72    15    67    1
    73    16    68    1
    74    16    69    1
    75    17    70    1
    76    17    71    1
    77    18    72    1
    78    18    73    1
    79    19    74    1
    80    19    75    1
    81    20    76    1
    82    20    77    1
    83    30    78    1
    84    31    79    1
    85    32    80    1
    86    36    81    1
    87    36    82    1
    88    37    83    1
    89    37    84    1
@<TRIPOS>SUBSTRUCTURE
     1 <0>         1 TEMP              0 ****  ****    0 ROOT

