
##########                                Name:        A7T_342_3G6Z
##########                    Molecular_Weight:             622.634
##########                DOCK_Rotatable_Bonds:                  11
##########                       Formal_Charge:              2.0004
##########                     HBond_Acceptors:                   8
##########                        HBond_Donors:                   4
##########                         Heavy_Atoms:                  43
##########                            HA_RMSDs:               0.288
##########                            HA_RMSDh:               0.288
##########                            HA_RMSDm:               0.288
##########                          Grid_Score:         -226.913895
##########                     Grid_vdw_energy:          -76.653000
##########                      Grid_es_energy:         -150.260895
##########           Internal_energy_repulsive:           56.471390

@<TRIPOS>MOLECULE
A7T_342_3G6Z
 84 89 1 0 0
SMALL
USER_CHARGES


@<TRIPOS>ATOM
      1 C1         -3.4040  -10.5010   -7.7788 C.3     1  <0>        -0.0395
      2 C2        -11.1183   -8.8776   -6.5291 C.3     1  <0>        -0.0396
      3 C3         -5.6417  -12.3033   -7.8041 C.3     1  <0>        -0.0392
      4 C4         -2.5332  -12.7957  -10.7097 C.ar    1  <0>        -0.0612
      5 C5         -2.4576  -11.7810   -9.7545 C.ar    1  <0>        -0.0586
      6 C6         -3.6219  -13.6757  -10.7272 C.ar    1  <0>        -0.0568
      7 C7         -9.3745  -17.7532  -11.1428 C.ar    1  <0>        -0.0519
      8 C8         -7.7421  -17.7142   -9.3616 C.ar    1  <0>        -0.0519
      9 C9        -10.3743  -17.4215  -10.2427 C.ar    1  <0>        -0.0311
     10 C10        -8.7488  -17.3776   -8.4525 C.ar    1  <0>        -0.0311
     11 C11       -12.8010  -10.6005   -7.1156 C.ar    1  <0>        -0.0379
     12 C12       -10.4641  -11.1092   -7.5093 C.ar    1  <0>        -0.0379
     13 C13        -6.8866  -13.7179  -12.3856 C.3     1  <0>        -0.0326
     14 C14        -7.0821  -15.0759  -13.0485 C.3     1  <0>        -0.0326
     15 C15        -7.4017  -19.4191  -12.6742 C.3     1  <0>         0.0216
     16 C16        -5.3953  -20.8592  -13.0236 C.3     1  <0>         0.0109
     17 C17        -3.8081  -18.9513  -12.3283 C.3     1  <0>         0.0151
     18 C18       -12.3176  -16.4197   -8.4393 C.3     1  <0>         0.0780
     19 C19       -12.6209  -15.1375   -7.6821 C.3     1  <0>         0.0782
     20 C20        -5.8446  -14.3920   -9.7191 C.3     1  <0>         0.0406
     21 C21        -3.4745  -11.6086   -8.8138 C.ar    1  <0>        -0.0472
     22 C22       -11.4667  -10.2426   -7.0695 C.ar    1  <0>        -0.0475
     23 C23        -4.5504  -12.4785   -8.8280 C.ar    1  <0>        -0.0429
     24 C24        -8.0639  -17.9074  -10.7175 C.ar    1  <0>        -0.0209
     25 C25       -10.0615  -17.2327   -8.8986 C.ar    1  <0>         0.0763
     26 C26        -4.6226  -13.5140   -9.7721 C.ar    1  <0>        -0.0269
     27 C27       -13.1985  -11.8347   -7.5966 C.ar    1  <0>         0.0726
     28 C28       -10.7555  -12.3733   -8.0183 C.ar    1  <0>         0.0726
     29 C29       -12.1732  -12.7958   -8.0778 C.ar    1  <0>         0.1128
     30 C30        -7.3230  -14.9252  -11.5533 C.3     1  <0>         0.0268
     31 C31        -6.3053  -19.8169  -13.6599 C.3     1  <0>         0.0230
     32 C32        -4.8427  -17.9816  -12.8958 C.3     1  <0>         0.0496
     33 C33        -7.0211  -18.2610  -11.7483 C.2     1  <0>        -0.0210
     34 C34        -5.8388  -17.5902  -11.8337 C.2     1  <0>         0.0709
     35 C35        -5.4893  -16.5389  -10.8536 C.2     1  <0>         0.2490
     36 N1         -4.4320  -20.2571  -12.1077 N.4     1  <0>         0.2352
     37 N2         -5.5235  -18.6527  -13.9975 N.4     1  <0>         0.2425
     38 N3         -6.1470  -15.3655  -10.7692 N.am    1  <0>        -0.2902
     39 O1         -4.5555  -16.7545  -10.0780 O.2     1  <0>        -0.2701
     40 O2        -11.0454  -16.9075   -8.0118 O.3     1  <0>        -0.3424
     41 O3        -12.5289  -14.0227   -8.5612 O.3     1  <0>        -0.3395
     42 Cl1       -14.9516  -12.2254   -7.6384 Cl      1  <0>        -0.0808
     43 Cl2        -9.4363  -13.4612   -8.5768 Cl      1  <0>        -0.0808
     44 H1         -3.8863   -9.5958   -8.1763 H       1  <0>         0.0278
     45 H2         -3.9233  -10.8212   -6.8635 H       1  <0>         0.0278
     46 H3         -2.3511  -10.2834   -7.5462 H       1  <0>         0.0278
     47 H4        -10.9591   -8.9426   -5.4425 H       1  <0>         0.0278
     48 H5        -10.1993   -8.5155   -7.0132 H       1  <0>         0.0278
     49 H6        -11.9424   -8.1796   -6.7377 H       1  <0>         0.0278
     50 H7         -6.4143  -11.6293   -8.2025 H       1  <0>         0.0278
     51 H8         -6.0907  -13.2813   -7.5759 H       1  <0>         0.0278
     52 H9         -5.2168  -11.8716   -6.8859 H       1  <0>         0.0278
     53 H10        -1.7458  -12.9028  -11.4411 H       1  <0>         0.0618
     54 H11        -1.6024  -11.1216   -9.7428 H       1  <0>         0.0620
     55 H12        -3.6845  -14.4621  -11.4646 H       1  <0>         0.0621
     56 H13        -9.6184  -17.8930  -12.1855 H       1  <0>         0.0624
     57 H14        -6.7219  -17.8255   -9.0249 H       1  <0>         0.0624
     58 H15       -11.3933  -17.3096  -10.5824 H       1  <0>         0.0643
     59 H16        -8.5109  -17.2305   -7.4093 H       1  <0>         0.0643
     60 H17       -13.5483   -9.9021   -6.7690 H       1  <0>         0.0636
     61 H18        -9.4336  -10.7908   -7.4533 H       1  <0>         0.0636
     62 H19        -5.9993  -13.0721  -12.3107 H       1  <0>         0.0284
     63 H20        -7.3769  -12.7496  -12.5651 H       1  <0>         0.0284
     64 H21        -7.7596  -15.3891  -13.8565 H       1  <0>         0.0284
     65 H22        -6.3758  -15.7130  -13.6010 H       1  <0>         0.0284
     66 H23        -8.2845  -19.1129  -13.2547 H       1  <0>         0.0370
     67 H24        -7.6274  -20.2942  -12.0471 H       1  <0>         0.0370
     68 H25        -6.0164  -21.5723  -12.4618 H       1  <0>         0.0870
     69 H26        -4.8444  -21.3791  -13.8213 H       1  <0>         0.0870
     70 H27        -2.9764  -19.0580  -13.0402 H       1  <0>         0.0874
     71 H28        -3.4257  -18.5617  -11.3733 H       1  <0>         0.0874
     72 H29       -13.0943  -17.1696   -8.2285 H       1  <0>         0.0588
     73 H30       -12.2952  -16.2177   -9.5203 H       1  <0>         0.0588
     74 H31       -13.6383  -15.1914   -7.2677 H       1  <0>         0.0588
     75 H32       -11.8950  -15.0172   -6.8644 H       1  <0>         0.0588
     76 H33        -5.7444  -14.9792   -8.7943 H       1  <0>         0.0514
     77 H34        -6.7013  -13.7023   -9.7025 H       1  <0>         0.0514
     78 H35        -8.1548  -15.1891  -10.8836 H       1  <0>         0.0501
     79 H36        -6.7662  -20.2359  -14.5665 H       1  <0>         0.0907
     80 H37        -4.3485  -17.0641  -13.2481 H       1  <0>         0.0959
     81 H38        -4.9218  -20.1664  -11.2406 H       1  <0>         0.2018
     82 H39        -3.6707  -20.9044  -12.0711 H       1  <0>         0.2018
     83 H40        -4.8195  -18.9472  -14.6438 H       1  <0>         0.2027
     84 H41        -6.1470  -17.9874  -14.4082 H       1  <0>         0.2027
@<TRIPOS>BOND
     1     1    21    1
     2     2    22    1
     3     3    23    1
     4     4     5   ar
     5     4     6   ar
     6     5    21   ar
     7     6    26   ar
     8     7     9   ar
     9     7    24   ar
    10     8    10   ar
    11     8    24   ar
    12     9    25   ar
    13    10    25   ar
    14    11    22   ar
    15    11    27   ar
    16    12    22   ar
    17    12    28   ar
    18    13    14    1
    19    13    30    1
    20    14    30    1
    21    15    31    1
    22    15    33    1
    23    16    31    1
    24    16    36    1
    25    17    32    1
    26    17    36    1
    27    18    19    1
    28    18    40    1
    29    19    41    1
    30    20    26    1
    31    20    38    1
    32    21    23   ar
    33    23    26   ar
    34    24    33    1
    35    25    40    1
    36    27    29   ar
    37    27    42    1
    38    28    29   ar
    39    28    43    1
    40    29    41    1
    41    30    38    1
    42    31    37    1
    43    32    34    1
    44    32    37    1
    45    33    34    2
    46    34    35    1
    47    35    38   am
    48    35    39    2
    49     1    44    1
    50     1    45    1
    51     1    46    1
    52     2    47    1
    53     2    48    1
    54     2    49    1
    55     3    50    1
    56     3    51    1
    57     3    52    1
    58     4    53    1
    59     5    54    1
    60     6    55    1
    61     7    56    1
    62     8    57    1
    63     9    58    1
    64    10    59    1
    65    11    60    1
    66    12    61    1
    67    13    62    1
    68    13    63    1
    69    14    64    1
    70    14    65    1
    71    15    66    1
    72    15    67    1
    73    16    68    1
    74    16    69    1
    75    17    70    1
    76    17    71    1
    77    18    72    1
    78    18    73    1
    79    19    74    1
    80    19    75    1
    81    20    76    1
    82    20    77    1
    83    30    78    1
    84    31    79    1
    85    32    80    1
    86    36    81    1
    87    36    82    1
    88    37    83    1
    89    37    84    1
@<TRIPOS>SUBSTRUCTURE
     1 <0>         1 TEMP              0 ****  ****    0 ROOT

