
##########                                Name:        A7T_342_3G6Z
##########                    Molecular_Weight:             622.634
##########                DOCK_Rotatable_Bonds:                  11
##########                       Formal_Charge:              2.0004
##########                     HBond_Acceptors:                   8
##########                        HBond_Donors:                   4
##########                         Heavy_Atoms:                  43
##########                            HA_RMSDs:               0.307
##########                            HA_RMSDh:               0.307
##########                            HA_RMSDm:               0.307
##########                          Grid_Score:         -227.239746
##########                     Grid_vdw_energy:          -76.893425
##########                      Grid_es_energy:         -150.346329
##########           Internal_energy_repulsive:           56.590477

@<TRIPOS>MOLECULE
A7T_342_3G6Z
 84 89 1 0 0
SMALL
USER_CHARGES


@<TRIPOS>ATOM
      1 C1         -3.1722  -10.6388   -7.6931 C.3     1  <0>        -0.0395
      2 C2        -11.2812   -8.7727   -6.3502 C.3     1  <0>        -0.0396
      3 C3         -5.4147  -12.4352   -7.6962 C.3     1  <0>        -0.0392
      4 C4         -2.5717  -12.6415  -10.8935 C.ar    1  <0>        -0.0612
      5 C5         -2.4077  -11.7225   -9.8561 C.ar    1  <0>        -0.0586
      6 C6         -3.6632  -13.5181  -10.9004 C.ar    1  <0>        -0.0568
      7 C7         -9.3584  -17.6329  -11.1752 C.ar    1  <0>        -0.0519
      8 C8         -7.7431  -17.6550   -9.3783 C.ar    1  <0>        -0.0519
      9 C9        -10.3561  -17.2752  -10.2829 C.ar    1  <0>        -0.0311
     10 C10        -8.7477  -17.2922   -8.4769 C.ar    1  <0>        -0.0311
     11 C11       -12.8991  -10.5250   -7.0252 C.ar    1  <0>        -0.0379
     12 C12       -10.5411  -10.9486   -7.3926 C.ar    1  <0>        -0.0379
     13 C13        -6.8238  -13.6664  -12.4414 C.3     1  <0>        -0.0326
     14 C14        -7.0234  -15.0248  -13.1023 C.3     1  <0>        -0.0326
     15 C15        -7.4091  -19.3751  -12.6737 C.3     1  <0>         0.0216
     16 C16        -5.4207  -20.8457  -12.9983 C.3     1  <0>         0.0109
     17 C17        -3.8107  -18.9503  -12.3216 C.3     1  <0>         0.0151
     18 C18       -12.3091  -16.2866   -8.4942 C.3     1  <0>         0.0780
     19 C19       -12.6465  -15.0171   -7.7301 C.3     1  <0>         0.0782
     20 C20        -5.7950  -14.3321   -9.7766 C.3     1  <0>         0.0406
     21 C21        -3.3386  -11.6427   -8.8189 C.ar    1  <0>        -0.0472
     22 C22       -11.5777  -10.1284   -6.9425 C.ar    1  <0>        -0.0475
     23 C23        -4.4170  -12.5096   -8.8227 C.ar    1  <0>        -0.0429
     24 C24        -8.0575  -17.8304  -10.7383 C.ar    1  <0>        -0.0209
     25 C25       -10.0508  -17.1038   -8.9347 C.ar    1  <0>         0.0763
     26 C26        -4.5768  -13.4504   -9.8513 C.ar    1  <0>        -0.0269
     27 C27       -13.2498  -11.7536   -7.5546 C.ar    1  <0>         0.0726
     28 C28       -10.7843  -12.2029   -7.9491 C.ar    1  <0>         0.0726
     29 C29       -12.1870  -12.6661   -8.0488 C.ar    1  <0>         0.1128
     30 C30        -7.2742  -14.8686  -11.6093 C.3     1  <0>         0.0268
     31 C31        -6.3149  -19.7996  -13.6507 C.3     1  <0>         0.0230
     32 C32        -4.8306  -17.9743  -12.9047 C.3     1  <0>         0.0496
     33 C33        -7.0161  -18.2106  -11.7610 C.2     1  <0>        -0.0210
     34 C34        -5.8248  -17.5565  -11.8509 C.2     1  <0>         0.0709
     35 C35        -5.4646  -16.4977  -10.8829 C.2     1  <0>         0.2490
     36 N1         -4.4525  -20.2449  -12.0868 N.4     1  <0>         0.2352
     37 N2         -5.5167  -18.6501  -14.0001 N.4     1  <0>         0.2425
     38 N3         -6.1068  -15.3146  -10.8155 N.am    1  <0>        -0.2902
     39 O1         -4.5364  -16.7160  -10.1012 O.2     1  <0>        -0.2701
     40 O2        -11.0327  -16.7531   -8.0555 O.3     1  <0>        -0.3424
     41 O3        -12.4960  -13.8859   -8.5797 O.3     1  <0>        -0.3395
     42 Cl1       -14.9889  -12.1958   -7.6417 Cl      1  <0>        -0.0808
     43 Cl2        -9.4225  -13.2305   -8.5194 Cl      1  <0>        -0.0808
     44 H1         -3.6814   -9.7007   -7.9594 H       1  <0>         0.0278
     45 H2         -3.6125  -11.0459   -6.7709 H       1  <0>         0.0278
     46 H3         -2.1019  -10.4420   -7.5327 H       1  <0>         0.0278
     47 H4        -11.1389   -8.8699   -5.2638 H       1  <0>         0.0278
     48 H5        -10.3656   -8.3665   -6.8049 H       1  <0>         0.0278
     49 H6        -12.1228   -8.0934   -6.5505 H       1  <0>         0.0278
     50 H7         -6.2147  -11.7279   -7.9603 H       1  <0>         0.0278
     51 H8         -5.8483  -13.4314   -7.5242 H       1  <0>         0.0278
     52 H9         -4.9096  -12.0921   -6.7813 H       1  <0>         0.0278
     53 H10        -1.8510  -12.6767  -11.6970 H       1  <0>         0.0618
     54 H11        -1.5507  -11.0653   -9.8557 H       1  <0>         0.0620
     55 H12        -3.7940  -14.2308  -11.7012 H       1  <0>         0.0621
     56 H13        -9.5963  -17.7592  -12.2211 H       1  <0>         0.0624
     57 H14        -6.7302  -17.7999   -9.0324 H       1  <0>         0.0624
     58 H15       -11.3678  -17.1296  -10.6317 H       1  <0>         0.0643
     59 H16        -8.5155  -17.1584   -7.4306 H       1  <0>         0.0643
     60 H17       -13.6736   -9.8618   -6.6691 H       1  <0>         0.0636
     61 H18        -9.5221  -10.6011   -7.3071 H       1  <0>         0.0636
     62 H19        -5.9327  -13.0263  -12.3617 H       1  <0>         0.0284
     63 H20        -7.3063  -12.6954  -12.6270 H       1  <0>         0.0284
     64 H21        -7.6971  -15.3356  -13.9144 H       1  <0>         0.0284
     65 H22        -6.3174  -15.6680  -13.6480 H       1  <0>         0.0284
     66 H23        -8.2859  -19.0646  -13.2609 H       1  <0>         0.0370
     67 H24        -7.6483  -20.2392  -12.0365 H       1  <0>         0.0370
     68 H25        -6.0530  -21.5435  -12.4298 H       1  <0>         0.0870
     69 H26        -4.8742  -21.3828  -13.7876 H       1  <0>         0.0870
     70 H27        -2.9782  -19.0768  -13.0293 H       1  <0>         0.0874
     71 H28        -3.4262  -18.5538  -11.3703 H       1  <0>         0.0874
     72 H29       -13.0734  -17.0533   -8.2991 H       1  <0>         0.0588
     73 H30       -12.2779  -16.0748   -9.5732 H       1  <0>         0.0588
     74 H31       -13.6866  -15.0708   -7.3761 H       1  <0>         0.0588
     75 H32       -11.9683  -14.9190   -6.8696 H       1  <0>         0.0588
     76 H33        -5.6814  -14.9119   -8.8487 H       1  <0>         0.0514
     77 H34        -6.6538  -13.6452   -9.7548 H       1  <0>         0.0514
     78 H35        -8.1125  -15.1253  -10.9449 H       1  <0>         0.0501
     79 H36        -6.7784  -20.2238  -14.5536 H       1  <0>         0.0907
     80 H37        -4.3232  -17.0679  -13.2667 H       1  <0>         0.0959
     81 H38        -4.9438  -20.1369  -11.2225 H       1  <0>         0.2018
     82 H39        -3.7000  -20.9017  -12.0396 H       1  <0>         0.2018
     83 H40        -4.8146  -18.9619  -14.6404 H       1  <0>         0.2027
     84 H41        -6.1300  -17.9819  -14.4212 H       1  <0>         0.2027
@<TRIPOS>BOND
     1     1    21    1
     2     2    22    1
     3     3    23    1
     4     4     5   ar
     5     4     6   ar
     6     5    21   ar
     7     6    26   ar
     8     7     9   ar
     9     7    24   ar
    10     8    10   ar
    11     8    24   ar
    12     9    25   ar
    13    10    25   ar
    14    11    22   ar
    15    11    27   ar
    16    12    22   ar
    17    12    28   ar
    18    13    14    1
    19    13    30    1
    20    14    30    1
    21    15    31    1
    22    15    33    1
    23    16    31    1
    24    16    36    1
    25    17    32    1
    26    17    36    1
    27    18    19    1
    28    18    40    1
    29    19    41    1
    30    20    26    1
    31    20    38    1
    32    21    23   ar
    33    23    26   ar
    34    24    33    1
    35    25    40    1
    36    27    29   ar
    37    27    42    1
    38    28    29   ar
    39    28    43    1
    40    29    41    1
    41    30    38    1
    42    31    37    1
    43    32    34    1
    44    32    37    1
    45    33    34    2
    46    34    35    1
    47    35    38   am
    48    35    39    2
    49     1    44    1
    50     1    45    1
    51     1    46    1
    52     2    47    1
    53     2    48    1
    54     2    49    1
    55     3    50    1
    56     3    51    1
    57     3    52    1
    58     4    53    1
    59     5    54    1
    60     6    55    1
    61     7    56    1
    62     8    57    1
    63     9    58    1
    64    10    59    1
    65    11    60    1
    66    12    61    1
    67    13    62    1
    68    13    63    1
    69    14    64    1
    70    14    65    1
    71    15    66    1
    72    15    67    1
    73    16    68    1
    74    16    69    1
    75    17    70    1
    76    17    71    1
    77    18    72    1
    78    18    73    1
    79    19    74    1
    80    19    75    1
    81    20    76    1
    82    20    77    1
    83    30    78    1
    84    31    79    1
    85    32    80    1
    86    36    81    1
    87    36    82    1
    88    37    83    1
    89    37    84    1
@<TRIPOS>SUBSTRUCTURE
     1 <0>         1 TEMP              0 ****  ****    0 ROOT

