
##########                                Name:      189_A1001_1XL2
##########                    Molecular_Weight:             578.796
##########                DOCK_Rotatable_Bonds:                  14
##########                       Formal_Charge:                   1
##########                     HBond_Acceptors:                   8
##########                        HBond_Donors:                   2
##########                         Heavy_Atoms:                  41
##########                            HA_RMSDs:               8.123
##########                            HA_RMSDh:               4.695
##########                            HA_RMSDm:               3.450
##########                          Grid_Score:         -105.180145
##########                     Grid_vdw_energy:          -60.447491
##########                      Grid_es_energy:          -44.732658
##########           Internal_energy_repulsive:           47.011635

@<TRIPOS>MOLECULE
189_A1001_1XL2
 85 88 1 0 0
SMALL
USER_CHARGES


@<TRIPOS>ATOM
      1 C1         20.0780   -2.7998   14.1599 C.3     1  <0>        -0.0373
      2 C2         16.3555   -4.4980   17.1997 C.3     1  <0>        -0.0373
      3 C3         21.2077    1.9888   23.0139 C.3     1  <0>        -0.0612
      4 C4         19.5969    3.6569   23.9585 C.3     1  <0>        -0.0612
      5 C5         23.8407   -3.4964   16.5096 C.ar    1  <0>        -0.0617
      6 C6         15.1659   -3.0673   24.2143 C.ar    1  <0>        -0.0616
      7 C7         23.5350   -2.1944   16.1062 C.ar    1  <0>        -0.0615
      8 C8         23.3305   -3.9934   17.7128 C.ar    1  <0>        -0.0615
      9 C9         16.2248   -2.5590   24.9693 C.ar    1  <0>        -0.0599
     10 C10        15.1694   -2.9491   22.8216 C.ar    1  <0>        -0.0599
     11 C11        18.2414   -6.1095   14.3057 C.ar    1  <0>        -0.0611
     12 C12        22.7068   -1.3795   16.8844 C.ar    1  <0>        -0.0571
     13 C13        22.5000   -3.1782   18.4870 C.ar    1  <0>        -0.0571
     14 C14        17.2884   -1.9036   24.3357 C.ar    1  <0>        -0.0351
     15 C15        16.2407   -2.3231   22.1808 C.ar    1  <0>        -0.0351
     16 C16        19.1612   -5.1131   13.9742 C.ar    1  <0>        -0.0564
     17 C17        17.2516   -5.8288   15.2501 C.ar    1  <0>        -0.0564
     18 C18        19.1499    3.1505   19.4381 C.3     1  <0>        -0.0288
     19 C19        17.2988    1.8584   18.6367 C.3     1  <0>        -0.0288
     20 C20        21.2493   -1.0303   18.9402 C.3     1  <0>         0.0398
     21 C21        20.2296    1.2226   18.2442 C.3     1  <0>         0.0232
     22 C22        17.5950    1.2309   21.0461 C.3     1  <0>         0.0378
     23 C23        18.7334    1.4130   23.2096 C.3     1  <0>         0.0319
     24 C24        19.0994   -2.2779   17.4708 C.3     1  <0>         0.1304
     25 C25        19.1052   -3.8759   14.6363 C.ar    1  <0>        -0.0202
     26 C26        17.3361   -4.6910   16.0474 C.ar    1  <0>        -0.0202
     27 C27        22.1753   -1.8837   18.0700 C.ar    1  <0>        -0.0301
     28 C28        17.2853   -1.7953   22.9459 C.ar    1  <0>         0.1084
     29 C29        18.2176   -3.6557   15.6889 C.ar    1  <0>         0.0826
     30 C30        19.5354    1.6642   19.5399 C.3     1  <0>         0.0240
     31 C31        18.1365    0.9967   19.6088 C.3     1  <0>         0.0252
     32 C32        19.7606    2.5200   22.9510 C.3     1  <0>        -0.0296
     33 C33        19.4923   -0.8146   17.4044 C.2     1  <0>         0.2422
     34 N1         17.9568    3.1706   18.5595 N.4     1  <0>         0.2275
     35 N2         20.3308   -0.2340   18.1713 N.am    1  <0>        -0.2948
     36 N3         18.5292    0.6136   22.0006 N.pl3   1  <0>        -0.2334
     37 O1         18.8384   -0.1795   16.5682 O.2     1  <0>        -0.2730
     38 O2         19.7695   -1.2918   23.0165 O.2     1  <0>        -0.1501
     39 O3         18.6745   -1.6407   20.8053 O.2     1  <0>        -0.1501
     40 O4         18.1518   -2.4876   16.4247 O.3     1  <0>        -0.3350
     41 S1         18.6534   -0.9741   22.1240 S.o2    1  <0>         0.0706
     42 H1         19.6047   -2.2020   13.3671 H       1  <0>         0.0278
     43 H2         20.3427   -2.1456   15.0037 H       1  <0>         0.0278
     44 H3         20.9877   -3.2765   13.7660 H       1  <0>         0.0278
     45 H4         16.7992   -4.8860   18.1284 H       1  <0>         0.0278
     46 H5         16.1357   -3.4268   17.3183 H       1  <0>         0.0278
     47 H6         15.4242   -5.0418   16.9834 H       1  <0>         0.0278
     48 H7         21.3300    1.1697   22.2898 H       1  <0>         0.0233
     49 H8         21.9074    2.8016   22.7694 H       1  <0>         0.0233
     50 H9         21.4176    1.6164   24.0274 H       1  <0>         0.0233
     51 H10        18.5662    4.0388   23.9170 H       1  <0>         0.0233
     52 H11        19.8086    3.2827   24.9711 H       1  <0>         0.0233
     53 H12        20.2984    4.4679   23.7131 H       1  <0>         0.0233
     54 H13        24.4712   -4.1190   15.8922 H       1  <0>         0.0618
     55 H14        14.3391   -3.5548   24.7096 H       1  <0>         0.0618
     56 H15        23.9432   -1.8125   15.1821 H       1  <0>         0.0618
     57 H16        23.5746   -4.9935   18.0394 H       1  <0>         0.0618
     58 H17        16.2237   -2.6713   26.0435 H       1  <0>         0.0618
     59 H18        14.3460   -3.3407   22.2427 H       1  <0>         0.0618
     60 H19        18.2943   -7.0821   13.8393 H       1  <0>         0.0618
     61 H20        22.4816   -0.3711   16.5702 H       1  <0>         0.0621
     62 H21        22.1041   -3.5530   19.4193 H       1  <0>         0.0621
     63 H22        18.0992   -1.4881   24.9157 H       1  <0>         0.0637
     64 H23        16.2622   -2.2473   21.1037 H       1  <0>         0.0637
     65 H24        19.9089   -5.2921   13.2157 H       1  <0>         0.0621
     66 H25        16.4132   -6.5004   15.3627 H       1  <0>         0.0621
     67 H26        18.9187    3.5682   20.4290 H       1  <0>         0.0817
     68 H27        19.9696    3.7433   19.0061 H       1  <0>         0.0817
     69 H28        17.2622    1.3889   17.6426 H       1  <0>         0.0817
     70 H29        16.2699    1.9670   19.0102 H       1  <0>         0.0817
     71 H30        20.6663   -1.7027   19.5867 H       1  <0>         0.0514
     72 H31        21.8706   -0.3536   19.5453 H       1  <0>         0.0514
     73 H32        19.6446    1.5831   17.3852 H       1  <0>         0.0469
     74 H33        21.2418    1.6525   18.2173 H       1  <0>         0.0469
     75 H34        17.5177    2.3100   21.2446 H       1  <0>         0.0483
     76 H35        16.5999    0.7736   21.1491 H       1  <0>         0.0483
     77 H36        19.1005    0.7609   24.0158 H       1  <0>         0.0480
     78 H37        17.7775    1.8695   23.5063 H       1  <0>         0.0480
     79 H38        19.9805   -2.9206   17.3274 H       1  <0>         0.0662
     80 H39        18.6531   -2.5134   18.4482 H       1  <0>         0.0662
     81 H40        20.2104    1.4251   20.3750 H       1  <0>         0.0373
     82 H41        18.1260   -0.0773   19.3712 H       1  <0>         0.0373
     83 H42        19.5730    2.8973   21.9349 H       1  <0>         0.0311
     84 H43        17.3254    3.8846   18.8620 H       1  <0>         0.2014
     85 H44        18.2336    3.3558   17.6165 H       1  <0>         0.2014
@<TRIPOS>BOND
     1     1    25    1
     2     2    26    1
     3     3    32    1
     4     4    32    1
     5     5     7   ar
     6     5     8   ar
     7     6     9   ar
     8     6    10   ar
     9     7    12   ar
    10     8    13   ar
    11     9    14   ar
    12    10    15   ar
    13    11    16   ar
    14    11    17   ar
    15    12    27   ar
    16    13    27   ar
    17    14    28   ar
    18    15    28   ar
    19    16    25   ar
    20    17    26   ar
    21    18    30    1
    22    18    34    1
    23    19    31    1
    24    19    34    1
    25    20    27    1
    26    20    35    1
    27    21    30    1
    28    21    35    1
    29    22    31    1
    30    22    36    1
    31    23    32    1
    32    23    36    1
    33    24    33    1
    34    24    40    1
    35    25    29   ar
    36    26    29   ar
    37    28    41    1
    38    29    40    1
    39    30    31    1
    40    33    35   am
    41    33    37    2
    42    36    41    1
    43    38    41    2
    44    39    41    2
    45     1    42    1
    46     1    43    1
    47     1    44    1
    48     2    45    1
    49     2    46    1
    50     2    47    1
    51     3    48    1
    52     3    49    1
    53     3    50    1
    54     4    51    1
    55     4    52    1
    56     4    53    1
    57     5    54    1
    58     6    55    1
    59     7    56    1
    60     8    57    1
    61     9    58    1
    62    10    59    1
    63    11    60    1
    64    12    61    1
    65    13    62    1
    66    14    63    1
    67    15    64    1
    68    16    65    1
    69    17    66    1
    70    18    67    1
    71    18    68    1
    72    19    69    1
    73    19    70    1
    74    20    71    1
    75    20    72    1
    76    21    73    1
    77    21    74    1
    78    22    75    1
    79    22    76    1
    80    23    77    1
    81    23    78    1
    82    24    79    1
    83    24    80    1
    84    30    81    1
    85    31    82    1
    86    32    83    1
    87    34    84    1
    88    34    85    1
@<TRIPOS>SUBSTRUCTURE
     1 <0>         1 TEMP              0 ****  ****    0 ROOT

