
##########                                Name:      189_A1001_1XL2
##########                    Molecular_Weight:             578.796
##########                DOCK_Rotatable_Bonds:                  14
##########                       Formal_Charge:                   1
##########                     HBond_Acceptors:                   8
##########                        HBond_Donors:                   2
##########                         Heavy_Atoms:                  41
##########                            HA_RMSDs:               0.384
##########                            HA_RMSDh:               0.384
##########                            HA_RMSDm:               0.384
##########                          Grid_Score:         -105.591507
##########                     Grid_vdw_energy:          -47.567673
##########                      Grid_es_energy:          -58.023830
##########           Internal_energy_repulsive:           60.098770

@<TRIPOS>MOLECULE
189_A1001_1XL2
 85 88 1 0 0
SMALL
USER_CHARGES


@<TRIPOS>ATOM
      1 C1         16.0397   -3.3513   20.9599 C.3     1  <0>        -0.0373
      2 C2         19.4368    0.2721   22.1049 C.3     1  <0>        -0.0373
      3 C3         21.2021   -6.0648   15.2970 C.3     1  <0>        -0.0612
      4 C4         22.7025   -6.0635   13.2924 C.3     1  <0>        -0.0612
      5 C5         14.3857   -5.0916   18.9736 C.ar    1  <0>        -0.0617
      6 C6         26.0385   -1.3549   19.7648 C.ar    1  <0>        -0.0616
      7 C7         14.5704   -3.8902   18.2852 C.ar    1  <0>        -0.0615
      8 C8         15.4459   -5.9942   19.1014 C.ar    1  <0>        -0.0615
      9 C9         26.4083   -2.3778   18.8893 C.ar    1  <0>        -0.0599
     10 C10        24.6890   -1.0994   20.0243 C.ar    1  <0>        -0.0599
     11 C11        17.2849   -2.0060   24.2747 C.ar    1  <0>        -0.0611
     12 C12        15.8130   -3.5658   17.7317 C.ar    1  <0>        -0.0571
     13 C13        16.6879   -5.6661   18.5504 C.ar    1  <0>        -0.0571
     14 C14        25.4259   -3.1405   18.2447 C.ar    1  <0>        -0.0351
     15 C15        23.7046   -1.8751   19.4081 C.ar    1  <0>        -0.0351
     16 C16        16.6434   -2.7916   23.3154 C.ar    1  <0>        -0.0564
     17 C17        18.0667   -0.9282   23.8533 C.ar    1  <0>        -0.0564
     18 C18        20.2333   -1.7989   13.7890 C.3     1  <0>        -0.0288
     19 C19        20.9229   -0.2148   15.4482 C.3     1  <0>        -0.0288
     20 C20        18.2584   -4.1255   17.3082 C.3     1  <0>         0.0398
     21 C21        18.6271   -2.1697   15.6837 C.3     1  <0>         0.0232
     22 C22        22.4731   -2.1733   15.6683 C.3     1  <0>         0.0378
     23 C23        23.1842   -4.4680   15.1804 C.3     1  <0>         0.0319
     24 C24        18.7368   -2.2380   19.4404 C.3     1  <0>         0.1304
     25 C25        16.8438   -2.5158   21.9531 C.ar    1  <0>        -0.0202
     26 C26        18.4296   -0.7971   22.5160 C.ar    1  <0>        -0.0202
     27 C27        16.8778   -4.4524   17.8826 C.ar    1  <0>        -0.0301
     28 C28        24.0828   -2.8815   18.5141 C.ar    1  <0>         0.1084
     29 C29        17.7491   -1.5409   21.5355 C.ar    1  <0>         0.0826
     30 C30        20.0452   -2.4526   15.1693 C.3     1  <0>         0.0240
     31 C31        21.0564   -1.6432   16.0235 C.3     1  <0>         0.0252
     32 C32        22.0906   -5.1910   14.3874 C.3     1  <0>        -0.0296
     33 C33        18.4797   -1.8931   17.9861 C.2     1  <0>         0.2422
     34 N1         20.4130   -0.3565   14.0768 N.4     1  <0>         0.2275
     35 N2         18.4314   -2.7267   17.0211 N.am    1  <0>        -0.2948
     36 N3         22.5878   -3.5561   16.1576 N.pl3   1  <0>        -0.2334
     37 O1         18.4071   -0.6742   17.7875 O.2     1  <0>        -0.2730
     38 O2         23.3632   -5.2181   17.8420 O.2     1  <0>        -0.1501
     39 O3         21.6213   -3.5715   18.5235 O.2     1  <0>        -0.1501
     40 O4         18.0423   -1.2607   20.2142 O.3     1  <0>        -0.3350
     41 S1         22.8175   -3.8663   17.7076 S.o2    1  <0>         0.0706
     42 H1         15.0857   -2.8479   20.7444 H       1  <0>         0.0278
     43 H2         16.6129   -3.4649   20.0279 H       1  <0>         0.0278
     44 H3         15.8413   -4.3433   21.3916 H       1  <0>         0.0278
     45 H4         20.4468   -0.1632   22.0847 H       1  <0>         0.0278
     46 H5         19.1811    0.6513   21.1046 H       1  <0>         0.0278
     47 H6         19.4090    1.0996   22.8290 H       1  <0>         0.0278
     48 H7         20.7594   -5.4405   16.0871 H       1  <0>         0.0233
     49 H8         20.4002   -6.5206   14.6976 H       1  <0>         0.0233
     50 H9         21.8132   -6.8566   15.7548 H       1  <0>         0.0233
     51 H10        23.3370   -5.4442   12.6413 H       1  <0>         0.0233
     52 H11        23.3120   -6.8553   13.7524 H       1  <0>         0.0233
     53 H12        21.8991   -6.5192   12.6952 H       1  <0>         0.0233
     54 H13        13.4241   -5.3233   19.4071 H       1  <0>         0.0618
     55 H14        26.7998   -0.7574   20.2443 H       1  <0>         0.0618
     56 H15        13.7435   -3.2036   18.1791 H       1  <0>         0.0618
     57 H16        15.3071   -6.9321   19.6187 H       1  <0>         0.0618
     58 H17        27.4535   -2.5814   18.7088 H       1  <0>         0.0618
     59 H18        24.4084   -0.3045   20.6994 H       1  <0>         0.0618
     60 H19        17.1782   -2.2281   25.3262 H       1  <0>         0.0618
     61 H20        15.9460   -2.6390   17.1936 H       1  <0>         0.0621
     62 H21        17.5114   -6.3588   18.6417 H       1  <0>         0.0621
     63 H22        25.7049   -3.9180   17.5490 H       1  <0>         0.0637
     64 H23        22.6604   -1.6991   19.6203 H       1  <0>         0.0637
     65 H24        15.9992   -3.6038   23.6181 H       1  <0>         0.0621
     66 H25        18.3925   -0.1901   24.5713 H       1  <0>         0.0621
     67 H26        21.1120   -2.2118   13.2720 H       1  <0>         0.0817
     68 H27        19.3556   -1.9682   13.1479 H       1  <0>         0.0817
     69 H28        20.2257    0.3798   16.0568 H       1  <0>         0.0817
     70 H29        21.9005    0.2893   15.4435 H       1  <0>         0.0817
     71 H30        19.0186   -4.4236   18.0453 H       1  <0>         0.0514
     72 H31        18.3851   -4.6887   16.3718 H       1  <0>         0.0514
     73 H32        18.4727   -1.0813   15.7244 H       1  <0>         0.0469
     74 H33        17.9002   -2.6275   14.9966 H       1  <0>         0.0469
     75 H34        22.6177   -2.1501   14.5781 H       1  <0>         0.0483
     76 H35        23.2377   -1.5436   16.1464 H       1  <0>         0.0483
     77 H36        23.7987   -5.2118   15.7088 H       1  <0>         0.0480
     78 H37        23.8129   -3.8918   14.4856 H       1  <0>         0.0480
     79 H38        18.3637   -3.2472   19.6691 H       1  <0>         0.0662
     80 H39        19.8144   -2.2083   19.6591 H       1  <0>         0.0662
     81 H40        20.1898   -3.5431   15.1801 H       1  <0>         0.0373
     82 H41        20.8925   -1.7012   17.1097 H       1  <0>         0.0373
     83 H42        21.4612   -4.4130   13.9309 H       1  <0>         0.0311
     84 H43        21.0653    0.0392   13.4304 H       1  <0>         0.2014
     85 H44        19.5370    0.1179   13.9905 H       1  <0>         0.2014
@<TRIPOS>BOND
     1     1    25    1
     2     2    26    1
     3     3    32    1
     4     4    32    1
     5     5     7   ar
     6     5     8   ar
     7     6     9   ar
     8     6    10   ar
     9     7    12   ar
    10     8    13   ar
    11     9    14   ar
    12    10    15   ar
    13    11    16   ar
    14    11    17   ar
    15    12    27   ar
    16    13    27   ar
    17    14    28   ar
    18    15    28   ar
    19    16    25   ar
    20    17    26   ar
    21    18    30    1
    22    18    34    1
    23    19    31    1
    24    19    34    1
    25    20    27    1
    26    20    35    1
    27    21    30    1
    28    21    35    1
    29    22    31    1
    30    22    36    1
    31    23    32    1
    32    23    36    1
    33    24    33    1
    34    24    40    1
    35    25    29   ar
    36    26    29   ar
    37    28    41    1
    38    29    40    1
    39    30    31    1
    40    33    35   am
    41    33    37    2
    42    36    41    1
    43    38    41    2
    44    39    41    2
    45     1    42    1
    46     1    43    1
    47     1    44    1
    48     2    45    1
    49     2    46    1
    50     2    47    1
    51     3    48    1
    52     3    49    1
    53     3    50    1
    54     4    51    1
    55     4    52    1
    56     4    53    1
    57     5    54    1
    58     6    55    1
    59     7    56    1
    60     8    57    1
    61     9    58    1
    62    10    59    1
    63    11    60    1
    64    12    61    1
    65    13    62    1
    66    14    63    1
    67    15    64    1
    68    16    65    1
    69    17    66    1
    70    18    67    1
    71    18    68    1
    72    19    69    1
    73    19    70    1
    74    20    71    1
    75    20    72    1
    76    21    73    1
    77    21    74    1
    78    22    75    1
    79    22    76    1
    80    23    77    1
    81    23    78    1
    82    24    79    1
    83    24    80    1
    84    30    81    1
    85    31    82    1
    86    32    83    1
    87    34    84    1
    88    34    85    1
@<TRIPOS>SUBSTRUCTURE
     1 <0>         1 TEMP              0 ****  ****    0 ROOT

