
##########                                Name:      189_A1001_1XL2
##########                    Molecular_Weight:             578.796
##########                DOCK_Rotatable_Bonds:                  14
##########                       Formal_Charge:                   1
##########                     HBond_Acceptors:                   8
##########                        HBond_Donors:                   2
##########                         Heavy_Atoms:                  41
##########                            HA_RMSDs:               0.691
##########                            HA_RMSDh:               0.691
##########                            HA_RMSDm:               0.677
##########                          Grid_Score:         -104.267296
##########                     Grid_vdw_energy:          -45.724449
##########                      Grid_es_energy:          -58.542847
##########           Internal_energy_repulsive:           54.387939

@<TRIPOS>MOLECULE
189_A1001_1XL2
 85 88 1 0 0
SMALL
USER_CHARGES


@<TRIPOS>ATOM
      1 C1         16.0804   -1.4664   20.6751 C.3     1  <0>        -0.0373
      2 C2         21.0097   -0.5978   21.6385 C.3     1  <0>        -0.0373
      3 C3         21.0622   -5.9319   14.7125 C.3     1  <0>        -0.0612
      4 C4         22.6131   -6.0614   12.7510 C.3     1  <0>        -0.0612
      5 C5         14.4637   -4.9365   19.2155 C.ar    1  <0>        -0.0617
      6 C6         25.6044   -1.6032   19.5051 C.ar    1  <0>        -0.0616
      7 C7         14.5522   -3.7802   18.4366 C.ar    1  <0>        -0.0615
      8 C8         15.5296   -5.8408   19.2480 C.ar    1  <0>        -0.0615
      9 C9         26.0322   -2.6454   18.6802 C.ar    1  <0>        -0.0599
     10 C10        24.2464   -1.2848   19.5960 C.ar    1  <0>        -0.0599
     11 C11        17.9742   -0.9566   23.9158 C.ar    1  <0>        -0.0611
     12 C12        15.7055   -3.5024   17.6961 C.ar    1  <0>        -0.0571
     13 C13        16.6826   -5.5591   18.5098 C.ar    1  <0>        -0.0571
     14 C14        25.1029   -3.3645   17.9175 C.ar    1  <0>        -0.0351
     15 C15        23.3112   -2.0167   18.8612 C.ar    1  <0>        -0.0351
     16 C16        16.9621   -1.2465   22.9990 C.ar    1  <0>        -0.0564
     17 C17        19.2389   -0.6059   23.4383 C.ar    1  <0>        -0.0564
     18 C18        19.9244   -1.6426   13.4360 C.3     1  <0>        -0.0288
     19 C19        20.6485   -0.1257   15.1427 C.3     1  <0>        -0.0288
     20 C20        18.0662   -4.1117   16.9691 C.3     1  <0>         0.0398
     21 C21        18.3947   -2.1301   15.3673 C.3     1  <0>         0.0232
     22 C22        22.2371   -2.0642   15.2141 C.3     1  <0>         0.0378
     23 C23        22.9916   -4.2823   14.4927 C.3     1  <0>         0.0319
     24 C24        18.7627   -2.2969   19.1045 C.3     1  <0>         0.1304
     25 C25        17.2528   -1.2340   21.6251 C.ar    1  <0>        -0.0202
     26 C26        19.5711   -0.8052   22.1014 C.ar    1  <0>        -0.0202
     27 C27        16.7792   -4.3893   17.7498 C.ar    1  <0>        -0.0301
     28 C28        23.7503   -3.0429   18.0190 C.ar    1  <0>         0.1084
     29 C29        18.5530   -1.0396   21.1601 C.ar    1  <0>         0.0826
     30 C30        19.7974   -2.3633   14.7896 C.3     1  <0>         0.0240
     31 C31        20.8260   -1.5768   15.6445 C.3     1  <0>         0.0252
     32 C32        21.9439   -5.1143   13.7459 C.3     1  <0>        -0.0296
     33 C33        18.4183   -1.9065   17.6800 C.2     1  <0>         0.2422
     34 N1         20.0911   -0.2122   13.7852 N.4     1  <0>         0.2275
     35 N2         18.2716   -2.7132   16.7023 N.am    1  <0>        -0.2948
     36 N3         22.3574   -3.4919   15.5488 N.pl3   1  <0>        -0.2334
     37 O1         18.3782   -0.6812   17.5146 O.2     1  <0>        -0.2730
     38 O2         23.1441   -5.3097   17.0580 O.2     1  <0>        -0.1501
     39 O3         21.3185   -3.8158   17.8613 O.2     1  <0>        -0.1501
     40 O4         18.9210   -1.0776   19.8285 O.3     1  <0>        -0.3350
     41 S1         22.5504   -3.9715   17.0601 S.o2    1  <0>         0.0706
     42 H1         15.6242   -0.5008   20.4118 H       1  <0>         0.0278
     43 H2         16.4413   -1.9624   19.7620 H       1  <0>         0.0278
     44 H3         15.3309   -2.1039   21.1669 H       1  <0>         0.0278
     45 H4         21.5454   -1.5582   21.6631 H       1  <0>         0.0278
     46 H5         21.0110   -0.2037   20.6116 H       1  <0>         0.0278
     47 H6         21.5102    0.1182   22.3069 H       1  <0>         0.0278
     48 H7         20.5783   -5.2538   15.4308 H       1  <0>         0.0233
     49 H8         20.2919   -6.4696   14.1401 H       1  <0>         0.0233
     50 H9         21.6876   -6.6556   15.2558 H       1  <0>         0.0233
     51 H10        23.2430   -5.4824   12.0595 H       1  <0>         0.0233
     52 H11        23.2368   -6.7850   13.2964 H       1  <0>         0.0233
     53 H12        21.8412   -6.5990   12.1807 H       1  <0>         0.0233
     54 H13        13.5719   -5.1319   19.7925 H       1  <0>         0.0618
     55 H14        26.3273   -1.0395   20.0763 H       1  <0>         0.0618
     56 H15        13.7200   -3.0926   18.4059 H       1  <0>         0.0618
     57 H16        15.4630   -6.7447   19.8354 H       1  <0>         0.0618
     58 H17        27.0812   -2.8975   18.6301 H       1  <0>         0.0618
     59 H18        23.9214   -0.4753   20.2327 H       1  <0>         0.0618
     60 H19        17.7823   -1.0029   24.9775 H       1  <0>         0.0618
     61 H20        15.7635   -2.6106   17.0896 H       1  <0>         0.0621
     62 H21        17.5094   -6.2537   18.5267 H       1  <0>         0.0621
     63 H22        25.4297   -4.1567   17.2602 H       1  <0>         0.0637
     64 H23        22.2580   -1.7921   18.9428 H       1  <0>         0.0637
     65 H24        15.9650   -1.4782   23.3431 H       1  <0>         0.0621
     66 H25        19.9654   -0.1763   24.1122 H       1  <0>         0.0621
     67 H26        20.7902   -2.0151   12.8689 H       1  <0>         0.0817
     68 H27        19.0266   -1.7974   12.8195 H       1  <0>         0.0817
     69 H28        19.9645    0.4273   15.8033 H       1  <0>         0.0817
     70 H29        21.6170    0.3956   15.1268 H       1  <0>         0.0817
     71 H30        18.9164   -4.4786   17.5629 H       1  <0>         0.0514
     72 H31        18.0080   -4.6421   16.0072 H       1  <0>         0.0514
     73 H32        18.2110   -1.0475   15.4325 H       1  <0>         0.0469
     74 H33        17.6530   -2.5985   14.7035 H       1  <0>         0.0469
     75 H34        22.3666   -1.9227   14.1310 H       1  <0>         0.0483
     76 H35        23.0089   -1.4896   15.7471 H       1  <0>         0.0483
     77 H36        23.7343   -4.9571   14.9433 H       1  <0>         0.0480
     78 H37        23.4873   -3.6041   13.7824 H       1  <0>         0.0480
     79 H38        17.9572   -2.9041   19.5432 H       1  <0>         0.0662
     80 H39        19.6928   -2.8837   19.1293 H       1  <0>         0.0662
     81 H40        19.9600   -3.4503   14.7437 H       1  <0>         0.0373
     82 H41        20.7029   -1.6884   16.7319 H       1  <0>         0.0373
     83 H42        21.3005   -4.4049   13.2048 H       1  <0>         0.0311
     84 H43        20.7128    0.2249   13.1353 H       1  <0>         0.2014
     85 H44        19.2049    0.2500   13.7528 H       1  <0>         0.2014
@<TRIPOS>BOND
     1     1    25    1
     2     2    26    1
     3     3    32    1
     4     4    32    1
     5     5     7   ar
     6     5     8   ar
     7     6     9   ar
     8     6    10   ar
     9     7    12   ar
    10     8    13   ar
    11     9    14   ar
    12    10    15   ar
    13    11    16   ar
    14    11    17   ar
    15    12    27   ar
    16    13    27   ar
    17    14    28   ar
    18    15    28   ar
    19    16    25   ar
    20    17    26   ar
    21    18    30    1
    22    18    34    1
    23    19    31    1
    24    19    34    1
    25    20    27    1
    26    20    35    1
    27    21    30    1
    28    21    35    1
    29    22    31    1
    30    22    36    1
    31    23    32    1
    32    23    36    1
    33    24    33    1
    34    24    40    1
    35    25    29   ar
    36    26    29   ar
    37    28    41    1
    38    29    40    1
    39    30    31    1
    40    33    35   am
    41    33    37    2
    42    36    41    1
    43    38    41    2
    44    39    41    2
    45     1    42    1
    46     1    43    1
    47     1    44    1
    48     2    45    1
    49     2    46    1
    50     2    47    1
    51     3    48    1
    52     3    49    1
    53     3    50    1
    54     4    51    1
    55     4    52    1
    56     4    53    1
    57     5    54    1
    58     6    55    1
    59     7    56    1
    60     8    57    1
    61     9    58    1
    62    10    59    1
    63    11    60    1
    64    12    61    1
    65    13    62    1
    66    14    63    1
    67    15    64    1
    68    16    65    1
    69    17    66    1
    70    18    67    1
    71    18    68    1
    72    19    69    1
    73    19    70    1
    74    20    71    1
    75    20    72    1
    76    21    73    1
    77    21    74    1
    78    22    75    1
    79    22    76    1
    80    23    77    1
    81    23    78    1
    82    24    79    1
    83    24    80    1
    84    30    81    1
    85    31    82    1
    86    32    83    1
    87    34    84    1
    88    34    85    1
@<TRIPOS>SUBSTRUCTURE
     1 <0>         1 TEMP              0 ****  ****    0 ROOT

