
##########                                Name:      189_A1001_1XL2
##########                    Molecular_Weight:             578.796
##########                DOCK_Rotatable_Bonds:                  14
##########                       Formal_Charge:                   1
##########                     HBond_Acceptors:                   8
##########                        HBond_Donors:                   2
##########                         Heavy_Atoms:                  41
##########                            HA_RMSDs:               0.593
##########                            HA_RMSDh:               0.593
##########                            HA_RMSDm:               0.591
##########                          Grid_Score:         -102.843994
##########                     Grid_vdw_energy:          -44.212006
##########                      Grid_es_energy:          -58.631989
##########           Internal_energy_repulsive:           58.012447

@<TRIPOS>MOLECULE
189_A1001_1XL2
 85 88 1 0 0
SMALL
USER_CHARGES


@<TRIPOS>ATOM
      1 C1         16.0312   -1.8979   20.8301 C.3     1  <0>        -0.0373
      2 C2         20.4977    0.0633   22.3083 C.3     1  <0>        -0.0373
      3 C3         20.8970   -6.1895   14.7590 C.3     1  <0>        -0.0612
      4 C4         22.4126   -6.2111   12.7659 C.3     1  <0>        -0.0612
      5 C5         14.6918   -5.0377   19.0509 C.ar    1  <0>        -0.0617
      6 C6         25.5965   -1.0393   19.0620 C.ar    1  <0>        -0.0616
      7 C7         14.7659   -3.7508   18.5127 C.ar    1  <0>        -0.0615
      8 C8         15.8003   -5.8875   18.9864 C.ar    1  <0>        -0.0615
      9 C9         26.0461   -2.0923   18.2629 C.ar    1  <0>        -0.0599
     10 C10        24.2295   -0.8591   19.2913 C.ar    1  <0>        -0.0599
     11 C11        17.5179   -1.2919   24.2610 C.ar    1  <0>        -0.0611
     12 C12        15.9457   -3.2892   17.9206 C.ar    1  <0>        -0.0571
     13 C13        16.9794   -5.4226   18.3972 C.ar    1  <0>        -0.0571
     14 C14        25.1260   -2.9626   17.6642 C.ar    1  <0>        -0.0351
     15 C15        23.3080   -1.7405   18.7219 C.ar    1  <0>        -0.0351
     16 C16        16.6757   -1.7225   23.2343 C.ar    1  <0>        -0.0564
     17 C17        18.6773   -0.5857   23.9330 C.ar    1  <0>        -0.0564
     18 C18        19.8340   -1.0362   13.7279 C.3     1  <0>        -0.0288
     19 C19        21.0598   -0.1114   15.5664 C.3     1  <0>        -0.0288
     20 C20        18.3753   -3.6512   17.2584 C.3     1  <0>         0.0398
     21 C21        18.4239   -1.5851   15.7322 C.3     1  <0>         0.0232
     22 C22        22.1376   -2.3154   15.0491 C.3     1  <0>         0.0378
     23 C23        22.8955   -4.6125   14.6509 C.3     1  <0>         0.0319
     24 C24        18.9486   -1.8541   19.4446 C.3     1  <0>         0.1304
     25 C25        17.0407   -1.4862   21.8990 C.ar    1  <0>        -0.0202
     26 C26        19.1346   -0.5468   22.6190 C.ar    1  <0>        -0.0202
     27 C27        17.0598   -4.1257   17.8806 C.ar    1  <0>        -0.0301
     28 C28        23.7651   -2.7778   17.9032 C.ar    1  <0>         0.1084
     29 C29        18.2738   -0.9229   21.5725 C.ar    1  <0>         0.0826
     30 C30        19.6682   -1.9852   14.9277 C.3     1  <0>         0.0240
     31 C31        20.9319   -1.6397   15.7589 C.3     1  <0>         0.0252
     32 C32        21.8009   -5.3282   13.8526 C.3     1  <0>        -0.0296
     33 C33        18.5100   -1.4497   18.0503 C.2     1  <0>         0.2422
     34 N1         20.3709    0.2163   14.3099 N.4     1  <0>         0.2275
     35 N2         18.4159   -2.2294   17.0445 N.am    1  <0>        -0.2948
     36 N3         22.3013   -3.6698   15.5999 N.pl3   1  <0>        -0.2334
     37 O1         18.3295   -0.2310   17.9385 O.2     1  <0>        -0.2730
     38 O2         23.2444   -5.1923   17.3301 O.2     1  <0>        -0.1501
     39 O3         21.3743   -3.6797   17.9816 O.2     1  <0>        -0.1501
     40 O4         18.7237   -0.7205   20.2815 O.3     1  <0>        -0.3350
     41 S1         22.5799   -3.8995   17.1559 S.o2    1  <0>         0.0706
     42 H1         15.3592   -1.0540   20.6152 H       1  <0>         0.0278
     43 H2         16.5655   -2.1841   19.9122 H       1  <0>         0.0278
     44 H3         15.4415   -2.7527   21.1928 H       1  <0>         0.0278
     45 H4         21.2602   -0.7294   22.2941 H       1  <0>         0.0278
     46 H5         20.4631    0.5561   21.3255 H       1  <0>         0.0278
     47 H6         20.7527    0.8034   23.0810 H       1  <0>         0.0278
     48 H7         20.4545   -5.5575   15.5431 H       1  <0>         0.0233
     49 H8         20.0954   -6.6399   14.1553 H       1  <0>         0.0233
     50 H9         21.4968   -6.9852   15.2247 H       1  <0>         0.0233
     51 H10        23.0581   -5.6009   12.1171 H       1  <0>         0.0233
     52 H11        23.0108   -7.0069   13.2338 H       1  <0>         0.0233
     53 H12        21.6093   -6.6616   12.1644 H       1  <0>         0.0233
     54 H13        13.7782   -5.3763   19.5168 H       1  <0>         0.0618
     55 H14        26.3093   -0.3598   19.5055 H       1  <0>         0.0618
     56 H15        13.9017   -3.1044   18.5545 H       1  <0>         0.0618
     57 H16        15.7462   -6.8893   19.3862 H       1  <0>         0.0618
     58 H17        27.1050   -2.2361   18.1061 H       1  <0>         0.0618
     59 H18        23.8869   -0.0407   19.9072 H       1  <0>         0.0618
     60 H19        17.2768   -1.5015   25.2926 H       1  <0>         0.0618
     61 H20        15.9930   -2.2960   17.4991 H       1  <0>         0.0621
     62 H21        17.8395   -6.0733   18.3402 H       1  <0>         0.0621
     63 H22        25.4661   -3.7652   17.0266 H       1  <0>         0.0637
     64 H23        22.2515   -1.6219   18.9121 H       1  <0>         0.0637
     65 H24        15.7520   -2.2326   23.4648 H       1  <0>         0.0621
     66 H25        19.2237   -0.0652   24.7057 H       1  <0>         0.0621
     67 H26        20.5273   -1.4559   12.9841 H       1  <0>         0.0817
     68 H27        18.8707   -0.8589   13.2274 H       1  <0>         0.0817
     69 H28        20.5944    0.4213   16.4089 H       1  <0>         0.0817
     70 H29        22.1188    0.1805   15.5103 H       1  <0>         0.0817
     71 H30        19.1965   -3.9219   17.9384 H       1  <0>         0.0514
     72 H31        18.4974   -4.1505   16.2858 H       1  <0>         0.0514
     73 H32        18.4239   -0.4939   15.8705 H       1  <0>         0.0469
     74 H33        17.5256   -1.8942   15.1775 H       1  <0>         0.0469
     75 H34        21.9491   -2.3730   13.9669 H       1  <0>         0.0483
     76 H35        23.0509   -1.7282   15.2248 H       1  <0>         0.0483
     77 H36        23.4851   -5.3583   15.2040 H       1  <0>         0.0480
     78 H37        23.5479   -4.0627   13.9565 H       1  <0>         0.0480
     79 H38        18.3639   -2.7162   19.7979 H       1  <0>         0.0662
     80 H39        20.0131   -2.1313   19.4488 H       1  <0>         0.0662
     81 H40        19.5606   -3.0462   14.6576 H       1  <0>         0.0373
     82 H41        20.8902   -1.9522   16.8128 H       1  <0>         0.0373
     83 H42        21.1826   -4.5460   13.3880 H       1  <0>         0.0311
     84 H43        21.0142    0.6382   13.6710 H       1  <0>         0.2014
     85 H44        19.6222    0.8541   14.4905 H       1  <0>         0.2014
@<TRIPOS>BOND
     1     1    25    1
     2     2    26    1
     3     3    32    1
     4     4    32    1
     5     5     7   ar
     6     5     8   ar
     7     6     9   ar
     8     6    10   ar
     9     7    12   ar
    10     8    13   ar
    11     9    14   ar
    12    10    15   ar
    13    11    16   ar
    14    11    17   ar
    15    12    27   ar
    16    13    27   ar
    17    14    28   ar
    18    15    28   ar
    19    16    25   ar
    20    17    26   ar
    21    18    30    1
    22    18    34    1
    23    19    31    1
    24    19    34    1
    25    20    27    1
    26    20    35    1
    27    21    30    1
    28    21    35    1
    29    22    31    1
    30    22    36    1
    31    23    32    1
    32    23    36    1
    33    24    33    1
    34    24    40    1
    35    25    29   ar
    36    26    29   ar
    37    28    41    1
    38    29    40    1
    39    30    31    1
    40    33    35   am
    41    33    37    2
    42    36    41    1
    43    38    41    2
    44    39    41    2
    45     1    42    1
    46     1    43    1
    47     1    44    1
    48     2    45    1
    49     2    46    1
    50     2    47    1
    51     3    48    1
    52     3    49    1
    53     3    50    1
    54     4    51    1
    55     4    52    1
    56     4    53    1
    57     5    54    1
    58     6    55    1
    59     7    56    1
    60     8    57    1
    61     9    58    1
    62    10    59    1
    63    11    60    1
    64    12    61    1
    65    13    62    1
    66    14    63    1
    67    15    64    1
    68    16    65    1
    69    17    66    1
    70    18    67    1
    71    18    68    1
    72    19    69    1
    73    19    70    1
    74    20    71    1
    75    20    72    1
    76    21    73    1
    77    21    74    1
    78    22    75    1
    79    22    76    1
    80    23    77    1
    81    23    78    1
    82    24    79    1
    83    24    80    1
    84    30    81    1
    85    31    82    1
    86    32    83    1
    87    34    84    1
    88    34    85    1
@<TRIPOS>SUBSTRUCTURE
     1 <0>         1 TEMP              0 ****  ****    0 ROOT

