
##########                                Name:      189_A1001_1XL2
##########                    Molecular_Weight:             578.796
##########                DOCK_Rotatable_Bonds:                  14
##########                       Formal_Charge:                   1
##########                     HBond_Acceptors:                   8
##########                        HBond_Donors:                   2
##########                         Heavy_Atoms:                  41
##########                            HA_RMSDs:               0.735
##########                            HA_RMSDh:               0.735
##########                            HA_RMSDm:               0.701
##########                          Grid_Score:          -88.775642
##########                     Grid_vdw_energy:          -28.403830
##########                      Grid_es_energy:          -60.371811
##########           Internal_energy_repulsive:           43.659565

@<TRIPOS>MOLECULE
189_A1001_1XL2
 85 88 1 0 0
SMALL
USER_CHARGES


@<TRIPOS>ATOM
      1 C1         15.2527   -2.5716   20.7114 C.3     1  <0>        -0.0373
      2 C2         19.8692   -0.8941   22.0734 C.3     1  <0>        -0.0373
      3 C3         20.7946   -6.4255   15.3419 C.3     1  <0>        -0.0612
      4 C4         21.9703   -6.7784   13.1595 C.3     1  <0>        -0.0612
      5 C5         14.1504   -4.8270   18.6336 C.ar    1  <0>        -0.0617
      6 C6         25.7825   -1.7699   19.1714 C.ar    1  <0>        -0.0616
      7 C7         14.2757   -3.7872   17.7091 C.ar    1  <0>        -0.0615
      8 C8         15.2678   -5.5926   18.9803 C.ar    1  <0>        -0.0615
      9 C9         26.1032   -2.8140   18.3016 C.ar    1  <0>        -0.0599
     10 C10        24.4467   -1.4552   19.4366 C.ar    1  <0>        -0.0599
     11 C11        17.0311   -2.4903   24.0549 C.ar    1  <0>        -0.0611
     12 C12        15.5140   -3.4869   17.1329 C.ar    1  <0>        -0.0571
     13 C13        16.5050   -5.2882   18.4057 C.ar    1  <0>        -0.0571
     14 C14        25.0853   -3.5388   17.6683 C.ar    1  <0>        -0.0351
     15 C15        23.4265   -2.1927   18.8318 C.ar    1  <0>        -0.0351
     16 C16        16.0974   -2.7571   23.0520 C.ar    1  <0>        -0.0564
     17 C17        18.1751   -1.7556   23.7355 C.ar    1  <0>        -0.0564
     18 C18        19.9420   -1.7582   13.4438 C.3     1  <0>        -0.0288
     19 C19        21.0795   -0.2952   14.9616 C.3     1  <0>        -0.0288
     20 C20        18.0103   -3.9222   16.9053 C.3     1  <0>         0.0398
     21 C21        18.5291   -1.8223   15.5191 C.3     1  <0>         0.0232
     22 C22        22.2902   -2.4882   15.0690 C.3     1  <0>         0.0378
     23 C23        22.6850   -4.8690   14.6378 C.3     1  <0>         0.0319
     24 C24        18.5239   -2.3113   19.2461 C.3     1  <0>         0.1304
     25 C25        16.3561   -2.3313   21.7389 C.ar    1  <0>        -0.0202
     26 C26        18.5230   -1.5292   22.4070 C.ar    1  <0>        -0.0202
     27 C27        16.6338   -4.2317   17.4988 C.ar    1  <0>        -0.0301
     28 C28        23.7562   -3.2208   17.9433 C.ar    1  <0>         0.1084
     29 C29        17.5704   -1.7389   21.3941 C.ar    1  <0>         0.0826
     30 C30        19.8086   -2.3518   14.8572 C.3     1  <0>         0.0240
     31 C31        21.0353   -1.7177   15.5646 C.3     1  <0>         0.0252
     32 C32        21.5060   -5.7259   14.1652 C.3     1  <0>        -0.0296
     33 C33        18.3284   -1.7941   17.8339 C.2     1  <0>         0.2422
     34 N1         20.3961   -0.3646   13.6620 N.4     1  <0>         0.2275
     35 N2         18.2650   -2.5120   16.7808 N.am    1  <0>        -0.2948
     36 N3         22.2309   -3.8605   15.5965 N.pl3   1  <0>        -0.2334
     37 O1         18.3259   -0.5586   17.7713 O.2     1  <0>        -0.2730
     38 O2         22.9255   -5.5307   17.3078 O.2     1  <0>        -0.1501
     39 O3         21.2644   -3.7919   17.9614 O.2     1  <0>        -0.1501
     40 O4         17.9165   -1.3540   20.1126 O.3     1  <0>        -0.3350
     41 S1         22.4453   -4.1566   17.1514 S.o2    1  <0>         0.0706
     42 H1         14.5845   -1.6983   20.6792 H       1  <0>         0.0278
     43 H2         15.7027   -2.7255   19.7195 H       1  <0>         0.0278
     44 H3         14.6758   -3.4642   20.9949 H       1  <0>         0.0278
     45 H4         20.6098   -1.6840   21.8795 H       1  <0>         0.0278
     46 H5         19.7647   -0.2622   21.1791 H       1  <0>         0.0278
     47 H6         20.2039   -0.2780   22.9209 H       1  <0>         0.0278
     48 H7         20.4586   -5.6712   16.0687 H       1  <0>         0.0233
     49 H8         19.9251   -6.9839   14.9648 H       1  <0>         0.0233
     50 H9         21.4928   -7.1205   15.8313 H       1  <0>         0.0233
     51 H10        22.4783   -6.2837   12.3185 H       1  <0>         0.0233
     52 H11        22.6672   -7.4730   13.6513 H       1  <0>         0.0233
     53 H12        21.0996   -7.3364   12.7847 H       1  <0>         0.0233
     54 H13        13.1904   -5.0394   19.0805 H       1  <0>         0.0618
     55 H14        26.5714   -1.2019   19.6420 H       1  <0>         0.0618
     56 H15        13.4058   -3.2083   17.4361 H       1  <0>         0.0618
     57 H16        15.1762   -6.4081   19.6825 H       1  <0>         0.0618
     58 H17        27.1377   -3.0632   18.1167 H       1  <0>         0.0618
     59 H18        24.2042   -0.6442   20.1073 H       1  <0>         0.0618
     60 H19        16.8714   -2.8464   25.0618 H       1  <0>         0.0618
     61 H20        15.6016   -2.6871   16.4126 H       1  <0>         0.0621
     62 H21        17.3727   -5.8765   18.6655 H       1  <0>         0.0621
     63 H22        25.3268   -4.3325   16.9769 H       1  <0>         0.0637
     64 H23        22.3920   -1.9708   19.0486 H       1  <0>         0.0637
     65 H24        15.1847   -3.2860   23.2836 H       1  <0>         0.0621
     66 H25        18.7951   -1.3597   24.5263 H       1  <0>         0.0621
     67 H26        20.6714   -2.3228   12.8446 H       1  <0>         0.0817
     68 H27        18.9794   -1.7821   12.9120 H       1  <0>         0.0817
     69 H28        20.5693    0.4185   15.6253 H       1  <0>         0.0817
     70 H29        22.1211    0.0330   14.8298 H       1  <0>         0.0817
     71 H30        18.7764   -4.3547   17.5657 H       1  <0>         0.0514
     72 H31        18.0636   -4.3727   15.9032 H       1  <0>         0.0514
     73 H32        18.6490   -0.7472   15.7185 H       1  <0>         0.0469
     74 H33        17.6809   -1.9865   14.8383 H       1  <0>         0.0469
     75 H34        22.3037   -2.5115   13.9694 H       1  <0>         0.0483
     76 H35        23.2013   -1.9888   15.4299 H       1  <0>         0.0483
     77 H36        23.4311   -5.5166   15.1213 H       1  <0>         0.0480
     78 H37        23.1358   -4.3651   13.7701 H       1  <0>         0.0480
     79 H38        18.0482   -3.2959   19.3654 H       1  <0>         0.0662
     80 H39        19.5951   -2.4132   19.4746 H       1  <0>         0.0662
     81 H40        19.7665   -3.4506   14.8874 H       1  <0>         0.0373
     82 H41        20.9922   -1.7325   16.6636 H       1  <0>         0.0373
     83 H42        20.7903   -5.0443   13.6824 H       1  <0>         0.0311
     84 H43        21.0258   -0.0955   12.9333 H       1  <0>         0.2014
     85 H44        19.6091    0.2524   13.6597 H       1  <0>         0.2014
@<TRIPOS>BOND
     1     1    25    1
     2     2    26    1
     3     3    32    1
     4     4    32    1
     5     5     7   ar
     6     5     8   ar
     7     6     9   ar
     8     6    10   ar
     9     7    12   ar
    10     8    13   ar
    11     9    14   ar
    12    10    15   ar
    13    11    16   ar
    14    11    17   ar
    15    12    27   ar
    16    13    27   ar
    17    14    28   ar
    18    15    28   ar
    19    16    25   ar
    20    17    26   ar
    21    18    30    1
    22    18    34    1
    23    19    31    1
    24    19    34    1
    25    20    27    1
    26    20    35    1
    27    21    30    1
    28    21    35    1
    29    22    31    1
    30    22    36    1
    31    23    32    1
    32    23    36    1
    33    24    33    1
    34    24    40    1
    35    25    29   ar
    36    26    29   ar
    37    28    41    1
    38    29    40    1
    39    30    31    1
    40    33    35   am
    41    33    37    2
    42    36    41    1
    43    38    41    2
    44    39    41    2
    45     1    42    1
    46     1    43    1
    47     1    44    1
    48     2    45    1
    49     2    46    1
    50     2    47    1
    51     3    48    1
    52     3    49    1
    53     3    50    1
    54     4    51    1
    55     4    52    1
    56     4    53    1
    57     5    54    1
    58     6    55    1
    59     7    56    1
    60     8    57    1
    61     9    58    1
    62    10    59    1
    63    11    60    1
    64    12    61    1
    65    13    62    1
    66    14    63    1
    67    15    64    1
    68    16    65    1
    69    17    66    1
    70    18    67    1
    71    18    68    1
    72    19    69    1
    73    19    70    1
    74    20    71    1
    75    20    72    1
    76    21    73    1
    77    21    74    1
    78    22    75    1
    79    22    76    1
    80    23    77    1
    81    23    78    1
    82    24    79    1
    83    24    80    1
    84    30    81    1
    85    31    82    1
    86    32    83    1
    87    34    84    1
    88    34    85    1
@<TRIPOS>SUBSTRUCTURE
     1 <0>         1 TEMP              0 ****  ****    0 ROOT

