
##########                                Name:      189_A1001_1XL2
##########                    Molecular_Weight:             578.796
##########                DOCK_Rotatable_Bonds:                  14
##########                       Formal_Charge:                   1
##########                     HBond_Acceptors:                   8
##########                        HBond_Donors:                   2
##########                         Heavy_Atoms:                  41
##########                            HA_RMSDs:               0.652
##########                            HA_RMSDh:               0.652
##########                            HA_RMSDm:               0.634
##########                          Grid_Score:         -106.993202
##########                     Grid_vdw_energy:          -48.543739
##########                      Grid_es_energy:          -58.449463
##########           Internal_energy_repulsive:           55.380802

@<TRIPOS>MOLECULE
189_A1001_1XL2
 85 88 1 0 0
SMALL
USER_CHARGES


@<TRIPOS>ATOM
      1 C1         16.0338   -1.4440   20.6149 C.3     1  <0>        -0.0373
      2 C2         20.8644   -0.1085   21.5436 C.3     1  <0>        -0.0373
      3 C3         21.1243   -5.9462   14.6237 C.3     1  <0>        -0.0612
      4 C4         22.8707   -5.9909   12.8299 C.3     1  <0>        -0.0612
      5 C5         14.5918   -4.8797   19.1438 C.ar    1  <0>        -0.0617
      6 C6         25.9912   -1.6749   19.5556 C.ar    1  <0>        -0.0616
      7 C7         14.6871   -3.7191   18.3723 C.ar    1  <0>        -0.0615
      8 C8         15.6672   -5.7715   19.2010 C.ar    1  <0>        -0.0615
      9 C9         26.3378   -2.7765   18.7709 C.ar    1  <0>        -0.0599
     10 C10        24.6534   -1.2907   19.6839 C.ar    1  <0>        -0.0599
     11 C11        17.8767   -0.6914   23.8376 C.ar    1  <0>        -0.0611
     12 C12        15.8563   -3.4243   17.6639 C.ar    1  <0>        -0.0571
     13 C13        16.8359   -5.4728   18.4949 C.ar    1  <0>        -0.0571
     14 C14        25.3466   -3.4908   18.0854 C.ar    1  <0>        -0.0351
     15 C15        23.6568   -2.0159   19.0272 C.ar    1  <0>        -0.0351
     16 C16        16.8943   -1.0928   22.9306 C.ar    1  <0>        -0.0564
     17 C17        19.1036   -0.2376   23.3486 C.ar    1  <0>        -0.0564
     18 C18        20.2193   -1.3270   13.6116 C.3     1  <0>        -0.0288
     19 C19        20.9121   -0.2383   15.6297 C.3     1  <0>        -0.0288
     20 C20        18.2426   -4.0024   16.9976 C.3     1  <0>         0.0398
     21 C21        18.5361   -2.0830   15.3153 C.3     1  <0>         0.0232
     22 C22        22.3773   -2.2588   15.3901 C.3     1  <0>         0.0378
     23 C23        23.2088   -4.4952   14.8276 C.3     1  <0>         0.0319
     24 C24        18.8117   -2.0674   19.0641 C.3     1  <0>         0.1304
     25 C25        17.1812   -1.0846   21.5559 C.ar    1  <0>        -0.0202
     26 C26        19.4512   -0.4357   22.0154 C.ar    1  <0>        -0.0202
     27 C27        16.9387   -4.2987   17.7426 C.ar    1  <0>        -0.0301
     28 C28        24.0147   -3.1030   18.2239 C.ar    1  <0>         0.1084
     29 C29        18.4577   -0.7829   21.0827 C.ar    1  <0>         0.0826
     30 C30        19.9590   -2.2939   14.7800 C.3     1  <0>         0.0240
     31 C31        20.9708   -1.7694   15.8329 C.3     1  <0>         0.0252
     32 C32        22.1817   -5.1112   13.8720 C.3     1  <0>        -0.0296
     33 C33        18.4901   -1.7552   17.6152 C.2     1  <0>         0.2422
     34 N1         20.4444   -0.0111   14.2547 N.4     1  <0>         0.2275
     35 N2         18.4006   -2.6102   16.6721 N.am    1  <0>        -0.2948
     36 N3         22.5406   -3.6555   15.8229 N.pl3   1  <0>        -0.2334
     37 O1         18.4068   -0.5412   17.3929 O.2     1  <0>        -0.2730
     38 O2         23.2416   -5.3944   17.4617 O.2     1  <0>        -0.1501
     39 O3         21.5351   -3.7229   18.1715 O.2     1  <0>        -0.1501
     40 O4         18.8262   -0.8169   19.7512 O.3     1  <0>        -0.3350
     41 S1         22.7360   -4.0239   17.3648 S.o2    1  <0>         0.0706
     42 H1         15.4912   -0.5301   20.3317 H       1  <0>         0.0278
     43 H2         16.4375   -1.9254   19.7120 H       1  <0>         0.0278
     44 H3         15.3461   -2.1360   21.1231 H       1  <0>         0.0278
     45 H4         21.4855   -1.0152   21.5879 H       1  <0>         0.0278
     46 H5         20.8287    0.2611   20.5083 H       1  <0>         0.0278
     47 H6         21.2982    0.6649   22.1944 H       1  <0>         0.0278
     48 H7         20.6256   -5.3165   15.3752 H       1  <0>         0.0233
     49 H8         20.3786   -6.3231   13.9082 H       1  <0>         0.0233
     50 H9         21.6147   -6.7945   15.1234 H       1  <0>         0.0233
     51 H10        23.6258   -5.3993   12.2914 H       1  <0>         0.0233
     52 H11        23.3593   -6.8392   13.3316 H       1  <0>         0.0233
     53 H12        22.1232   -6.3678   12.1164 H       1  <0>         0.0233
     54 H13        13.6874   -5.0882   19.6960 H       1  <0>         0.0618
     55 H14        26.7614   -1.1162   20.0665 H       1  <0>         0.0618
     56 H15        13.8478   -3.0412   18.3223 H       1  <0>         0.0618
     57 H16        15.5958   -6.6787   19.7827 H       1  <0>         0.0618
     58 H17        27.3718   -3.0785   18.6922 H       1  <0>         0.0618
     59 H18        24.3912   -0.4355   20.2891 H       1  <0>         0.0618
     60 H19        17.6909   -0.7312   24.9007 H       1  <0>         0.0618
     61 H20        15.9197   -2.5293   17.0628 H       1  <0>         0.0621
     62 H21        17.6702   -6.1576   18.5310 H       1  <0>         0.0621
     63 H22        25.6105   -4.3297   17.4587 H       1  <0>         0.0637
     64 H23        22.6188   -1.7396   19.1389 H       1  <0>         0.0637
     65 H24        15.9227   -1.4066   23.2829 H       1  <0>         0.0621
     66 H25        19.7885    0.2714   24.0106 H       1  <0>         0.0621
     67 H26        21.0987   -1.6382   13.0287 H       1  <0>         0.0817
     68 H27        19.3582   -1.2913   12.9281 H       1  <0>         0.0817
     69 H28        20.2179    0.2178   16.3509 H       1  <0>         0.0817
     70 H29        21.9080    0.2060   15.7741 H       1  <0>         0.0817
     71 H30        19.0834   -4.3047   17.6392 H       1  <0>         0.0514
     72 H31        18.2437   -4.5786   16.0606 H       1  <0>         0.0514
     73 H32        18.3153   -1.0054   15.3275 H       1  <0>         0.0469
     74 H33        17.8261   -2.6052   14.6570 H       1  <0>         0.0469
     75 H34        22.4674   -2.1943   14.2957 H       1  <0>         0.0483
     76 H35        23.1534   -1.6316   15.8529 H       1  <0>         0.0483
     77 H36        23.7524   -5.3014   15.3418 H       1  <0>         0.0480
     78 H37        23.9146   -3.8794   14.2508 H       1  <0>         0.0480
     79 H38        18.0494   -2.7344   19.4932 H       1  <0>         0.0662
     80 H39        19.7908   -2.5626   19.1437 H       1  <0>         0.0662
     81 H40        20.0611   -3.3582   14.5216 H       1  <0>         0.0373
     82 H41        20.7677   -2.0879   16.8660 H       1  <0>         0.0373
     83 H42        21.6719   -4.2754   13.3706 H       1  <0>         0.0311
     84 H43        21.1332    0.5025   13.7431 H       1  <0>         0.2014
     85 H44        19.5907    0.5095   14.2690 H       1  <0>         0.2014
@<TRIPOS>BOND
     1     1    25    1
     2     2    26    1
     3     3    32    1
     4     4    32    1
     5     5     7   ar
     6     5     8   ar
     7     6     9   ar
     8     6    10   ar
     9     7    12   ar
    10     8    13   ar
    11     9    14   ar
    12    10    15   ar
    13    11    16   ar
    14    11    17   ar
    15    12    27   ar
    16    13    27   ar
    17    14    28   ar
    18    15    28   ar
    19    16    25   ar
    20    17    26   ar
    21    18    30    1
    22    18    34    1
    23    19    31    1
    24    19    34    1
    25    20    27    1
    26    20    35    1
    27    21    30    1
    28    21    35    1
    29    22    31    1
    30    22    36    1
    31    23    32    1
    32    23    36    1
    33    24    33    1
    34    24    40    1
    35    25    29   ar
    36    26    29   ar
    37    28    41    1
    38    29    40    1
    39    30    31    1
    40    33    35   am
    41    33    37    2
    42    36    41    1
    43    38    41    2
    44    39    41    2
    45     1    42    1
    46     1    43    1
    47     1    44    1
    48     2    45    1
    49     2    46    1
    50     2    47    1
    51     3    48    1
    52     3    49    1
    53     3    50    1
    54     4    51    1
    55     4    52    1
    56     4    53    1
    57     5    54    1
    58     6    55    1
    59     7    56    1
    60     8    57    1
    61     9    58    1
    62    10    59    1
    63    11    60    1
    64    12    61    1
    65    13    62    1
    66    14    63    1
    67    15    64    1
    68    16    65    1
    69    17    66    1
    70    18    67    1
    71    18    68    1
    72    19    69    1
    73    19    70    1
    74    20    71    1
    75    20    72    1
    76    21    73    1
    77    21    74    1
    78    22    75    1
    79    22    76    1
    80    23    77    1
    81    23    78    1
    82    24    79    1
    83    24    80    1
    84    30    81    1
    85    31    82    1
    86    32    83    1
    87    34    84    1
    88    34    85    1
@<TRIPOS>SUBSTRUCTURE
     1 <0>         1 TEMP              0 ****  ****    0 ROOT

