
##########                                Name:      189_A1001_1XL2
##########                    Molecular_Weight:             578.796
##########                DOCK_Rotatable_Bonds:                  14
##########                       Formal_Charge:                   1
##########                     HBond_Acceptors:                   8
##########                        HBond_Donors:                   2
##########                         Heavy_Atoms:                  41
##########                            HA_RMSDs:               0.499
##########                            HA_RMSDh:               0.499
##########                            HA_RMSDm:               0.499
##########                          Grid_Score:         -101.149193
##########                     Grid_vdw_energy:          -42.631050
##########                      Grid_es_energy:          -58.518143
##########           Internal_energy_repulsive:           51.163742

@<TRIPOS>MOLECULE
189_A1001_1XL2
 85 88 1 0 0
SMALL
USER_CHARGES


@<TRIPOS>ATOM
      1 C1         15.8495   -2.2065   20.9616 C.3     1  <0>        -0.0373
      2 C2         20.5288   -0.4491   21.9601 C.3     1  <0>        -0.0373
      3 C3         21.3199   -6.2172   14.6093 C.3     1  <0>        -0.0612
      4 C4         23.0351   -6.0291   12.7949 C.3     1  <0>        -0.0612
      5 C5         14.4831   -5.0471   19.1279 C.ar    1  <0>        -0.0617
      6 C6         25.3587   -1.0798   19.4634 C.ar    1  <0>        -0.0616
      7 C7         14.6015   -3.8339   18.4456 C.ar    1  <0>        -0.0615
      8 C8         15.5519   -5.9485   19.1419 C.ar    1  <0>        -0.0615
      9 C9         25.8422   -2.1435   18.6988 C.ar    1  <0>        -0.0599
     10 C10        23.9851   -0.8342   19.5447 C.ar    1  <0>        -0.0599
     11 C11        17.7311   -1.7236   24.2135 C.ar    1  <0>        -0.0611
     12 C12        15.7870   -3.4967   17.7850 C.ar    1  <0>        -0.0571
     13 C13        16.7370   -5.6075   18.4840 C.ar    1  <0>        -0.0571
     14 C14        24.9528   -2.9583   17.9866 C.ar    1  <0>        -0.0351
     15 C15        23.0905   -1.6604   18.8611 C.ar    1  <0>        -0.0351
     16 C16        16.7633   -2.1017   23.2812 C.ar    1  <0>        -0.0564
     17 C17        18.8748   -1.0572   23.7684 C.ar    1  <0>        -0.0564
     18 C18        19.7971   -1.9000   13.4441 C.3     1  <0>        -0.0288
     19 C19        20.7674   -0.2006   14.8257 C.3     1  <0>        -0.0288
     20 C20        18.1836   -4.0419   17.1278 C.3     1  <0>         0.0398
     21 C21        18.4674   -2.0177   15.5714 C.3     1  <0>         0.0232
     22 C22        22.2695   -2.1987   15.0210 C.3     1  <0>         0.0378
     23 C23        23.1646   -4.4665   14.7656 C.3     1  <0>         0.0319
     24 C24        18.8012   -2.2522   19.3081 C.3     1  <0>         0.1304
     25 C25        16.9873   -1.8547   21.9170 C.ar    1  <0>        -0.0202
     26 C26        19.1848   -1.0114   22.4123 C.ar    1  <0>        -0.0202
     27 C27        16.8625   -4.3824   17.8219 C.ar    1  <0>        -0.0301
     28 C28        23.5844   -2.7084   18.0783 C.ar    1  <0>         0.1084
     29 C29        18.1985   -1.3338   21.4631 C.ar    1  <0>         0.0826
     30 C30        19.7875   -2.4122   14.8952 C.3     1  <0>         0.0240
     31 C31        20.9359   -1.5734   15.5156 C.3     1  <0>         0.0252
     32 C32        22.2321   -5.2456   13.8322 C.3     1  <0>        -0.0296
     33 C33        18.4598   -1.8425   17.8884 C.2     1  <0>         0.2422
     34 N1         20.0623   -0.4468   13.5595 N.4     1  <0>         0.2275
     35 N2         18.3484   -2.6324   16.8924 N.am    1  <0>        -0.2948
     36 N3         22.3953   -3.5444   15.6023 N.pl3   1  <0>        -0.2334
     37 O1         18.3836   -0.6158   17.7481 O.2     1  <0>        -0.2730
     38 O2         22.9727   -5.0918   17.4659 O.2     1  <0>        -0.1501
     39 O3         21.1463   -3.4359   17.8294 O.2     1  <0>        -0.1501
     40 O4         18.5103   -1.1248   20.1330 O.3     1  <0>        -0.3350
     41 S1         22.4360   -3.7592   17.1846 S.o2    1  <0>         0.0706
     42 H1         15.1929   -1.3331   20.8351 H       1  <0>         0.0278
     43 H2         16.2665   -2.4959   19.9858 H       1  <0>         0.0278
     44 H3         15.2692   -3.0443   21.3755 H       1  <0>         0.0278
     45 H4         21.2520   -1.2706   21.8496 H       1  <0>         0.0278
     46 H5         20.4056    0.0631   20.9946 H       1  <0>         0.0278
     47 H6         20.8980    0.2657   22.7102 H       1  <0>         0.0278
     48 H7         20.7398   -5.6571   15.3575 H       1  <0>         0.0233
     49 H8         20.6321   -6.7136   13.9090 H       1  <0>         0.0233
     50 H9         21.9372   -6.9738   15.1156 H       1  <0>         0.0233
     51 H10        23.6872   -5.3399   12.2382 H       1  <0>         0.0233
     52 H11        23.6507   -6.7860   13.3031 H       1  <0>         0.0233
     53 H12        22.3455   -6.5258   12.0965 H       1  <0>         0.0233
     54 H13        13.5660   -5.2888   19.6445 H       1  <0>         0.0618
     55 H14        26.0503   -0.4430   19.9951 H       1  <0>         0.0618
     56 H15        13.7673   -3.1482   18.4279 H       1  <0>         0.0618
     57 H16        15.4630   -6.8952   19.6540 H       1  <0>         0.0618
     58 H17        26.9037   -2.3382   18.6565 H       1  <0>         0.0618
     59 H18        23.6167   -0.0078   20.1344 H       1  <0>         0.0618
     60 H19        17.5975   -1.9431   25.2625 H       1  <0>         0.0618
     61 H20        15.8683   -2.5607   17.2525 H       1  <0>         0.0621
     62 H21        17.5665   -6.2992   18.4871 H       1  <0>         0.0621
     63 H22        25.3219   -3.7685   17.3753 H       1  <0>         0.0637
     64 H23        22.0265   -1.4914   18.9366 H       1  <0>         0.0637
     65 H24        15.8509   -2.5796   23.6059 H       1  <0>         0.0621
     66 H25        19.5244   -0.5731   24.4827 H       1  <0>         0.0621
     67 H26        20.5792   -2.3994   12.8534 H       1  <0>         0.0817
     68 H27        18.8318   -2.0884   12.9515 H       1  <0>         0.0817
     69 H28        20.1838    0.4797   15.4633 H       1  <0>         0.0817
     70 H29        21.7499    0.2556   14.6349 H       1  <0>         0.0817
     71 H30        19.0091   -4.3839   17.7693 H       1  <0>         0.0514
     72 H31        18.2073   -4.5593   16.1573 H       1  <0>         0.0514
     73 H32        18.4364   -0.9238   15.6828 H       1  <0>         0.0469
     74 H33        17.6298   -2.3559   14.9436 H       1  <0>         0.0469
     75 H34        22.2658   -2.2654   13.9231 H       1  <0>         0.0483
     76 H35        23.1160   -1.5734   15.3410 H       1  <0>         0.0483
     77 H36        23.7039   -5.1754   15.4110 H       1  <0>         0.0480
     78 H37        23.8828   -3.8924   14.1616 H       1  <0>         0.0480
     79 H38        18.1984   -3.1199   19.6145 H       1  <0>         0.0662
     80 H39        19.8645   -2.5231   19.3862 H       1  <0>         0.0662
     81 H40        19.8972   -3.5023   14.9940 H       1  <0>         0.0373
     82 H41        20.9273   -1.5218   16.6144 H       1  <0>         0.0373
     83 H42        21.5975   -4.5042   13.3247 H       1  <0>         0.0311
     84 H43        20.6278   -0.1436   12.7925 H       1  <0>         0.2014
     85 H44        19.1985    0.0571   13.5493 H       1  <0>         0.2014
@<TRIPOS>BOND
     1     1    25    1
     2     2    26    1
     3     3    32    1
     4     4    32    1
     5     5     7   ar
     6     5     8   ar
     7     6     9   ar
     8     6    10   ar
     9     7    12   ar
    10     8    13   ar
    11     9    14   ar
    12    10    15   ar
    13    11    16   ar
    14    11    17   ar
    15    12    27   ar
    16    13    27   ar
    17    14    28   ar
    18    15    28   ar
    19    16    25   ar
    20    17    26   ar
    21    18    30    1
    22    18    34    1
    23    19    31    1
    24    19    34    1
    25    20    27    1
    26    20    35    1
    27    21    30    1
    28    21    35    1
    29    22    31    1
    30    22    36    1
    31    23    32    1
    32    23    36    1
    33    24    33    1
    34    24    40    1
    35    25    29   ar
    36    26    29   ar
    37    28    41    1
    38    29    40    1
    39    30    31    1
    40    33    35   am
    41    33    37    2
    42    36    41    1
    43    38    41    2
    44    39    41    2
    45     1    42    1
    46     1    43    1
    47     1    44    1
    48     2    45    1
    49     2    46    1
    50     2    47    1
    51     3    48    1
    52     3    49    1
    53     3    50    1
    54     4    51    1
    55     4    52    1
    56     4    53    1
    57     5    54    1
    58     6    55    1
    59     7    56    1
    60     8    57    1
    61     9    58    1
    62    10    59    1
    63    11    60    1
    64    12    61    1
    65    13    62    1
    66    14    63    1
    67    15    64    1
    68    16    65    1
    69    17    66    1
    70    18    67    1
    71    18    68    1
    72    19    69    1
    73    19    70    1
    74    20    71    1
    75    20    72    1
    76    21    73    1
    77    21    74    1
    78    22    75    1
    79    22    76    1
    80    23    77    1
    81    23    78    1
    82    24    79    1
    83    24    80    1
    84    30    81    1
    85    31    82    1
    86    32    83    1
    87    34    84    1
    88    34    85    1
@<TRIPOS>SUBSTRUCTURE
     1 <0>         1 TEMP              0 ****  ****    0 ROOT

