
##########                                Name:      189_A1001_1XL2
##########                    Molecular_Weight:             578.796
##########                DOCK_Rotatable_Bonds:                  14
##########                       Formal_Charge:                   1
##########                     HBond_Acceptors:                   8
##########                        HBond_Donors:                   2
##########                         Heavy_Atoms:                  41
##########                            HA_RMSDs:               0.681
##########                            HA_RMSDh:               0.681
##########                            HA_RMSDm:               0.678
##########                          Grid_Score:         -116.953064
##########                     Grid_vdw_energy:          -60.414307
##########                      Grid_es_energy:          -56.538754
##########           Internal_energy_repulsive:           54.288296

@<TRIPOS>MOLECULE
189_A1001_1XL2
 85 88 1 0 0
SMALL
USER_CHARGES


@<TRIPOS>ATOM
      1 C1         15.8700   -2.7967   21.3528 C.3     1  <0>        -0.0373
      2 C2         19.6281    0.1302   23.1670 C.3     1  <0>        -0.0373
      3 C3         20.7113   -6.1811   15.0287 C.3     1  <0>        -0.0612
      4 C4         21.9819   -5.6228   12.9445 C.3     1  <0>        -0.0612
      5 C5         14.5402   -4.9908   19.0381 C.ar    1  <0>        -0.0617
      6 C6         25.6619   -1.1648   19.5788 C.ar    1  <0>        -0.0616
      7 C7         14.6569   -3.6748   18.5842 C.ar    1  <0>        -0.0615
      8 C8         15.6611   -5.8263   19.0554 C.ar    1  <0>        -0.0615
      9 C9         26.0522   -2.1423   18.6613 C.ar    1  <0>        -0.0599
     10 C10        24.3146   -1.0094   19.9166 C.ar    1  <0>        -0.0599
     11 C11        17.0985   -2.1510   24.8774 C.ar    1  <0>        -0.0611
     12 C12        15.8901   -3.1708   18.1591 C.ar    1  <0>        -0.0571
     13 C13        16.8933   -5.3191   18.6334 C.ar    1  <0>        -0.0571
     14 C14        25.0903   -2.9593   18.0533 C.ar    1  <0>        -0.0351
     15 C15        23.3532   -1.8400   19.3367 C.ar    1  <0>        -0.0351
     16 C16        16.4150   -2.6891   23.7855 C.ar    1  <0>        -0.0564
     17 C17        18.0295   -1.1336   24.6578 C.ar    1  <0>        -0.0564
     18 C18        19.8387   -1.0271   14.2528 C.3     1  <0>        -0.0288
     19 C19        21.1988    0.0719   15.8900 C.3     1  <0>        -0.0288
     20 C20        18.3849   -3.4747   17.7637 C.3     1  <0>         0.0398
     21 C21        18.5551   -1.3085   16.3930 C.3     1  <0>         0.0232
     22 C22        22.2027   -2.2024   15.5637 C.3     1  <0>         0.0378
     23 C23        22.6798   -4.5659   15.1212 C.3     1  <0>         0.0319
     24 C24        18.7454   -1.8314   20.1105 C.3     1  <0>         0.1304
     25 C25        16.7191   -2.2364   22.4913 C.ar    1  <0>        -0.0202
     26 C26        18.4752   -0.8477   23.3705 C.ar    1  <0>        -0.0202
     27 C27        17.0136   -3.9945   18.2022 C.ar    1  <0>        -0.0301
     28 C28        23.7497   -2.8001   18.4007 C.ar    1  <0>         0.1084
     29 C29        17.7595   -1.3364   22.2631 C.ar    1  <0>         0.0826
     30 C30        19.7366   -1.8283   15.5626 C.3     1  <0>         0.0240
     31 C31        21.0581   -1.4207   16.2659 C.3     1  <0>         0.0252
     32 C32        21.5005   -5.0806   14.2895 C.3     1  <0>        -0.0296
     33 C33        18.4311   -1.3326   18.7132 C.2     1  <0>         0.2422
     34 N1         20.4339    0.2703   14.6504 N.4     1  <0>         0.2275
     35 N2         18.4338   -2.0415   17.6521 N.am    1  <0>        -0.2948
     36 N3         22.2228   -3.5740   16.0957 N.pl3   1  <0>        -0.2334
     37 O1         18.2523   -0.1094   18.6692 O.2     1  <0>        -0.2730
     38 O2         23.1284   -5.1768   17.7725 O.2     1  <0>        -0.1501
     39 O3         21.3269   -3.6112   18.4889 O.2     1  <0>        -0.1501
     40 O4         18.1539   -0.8979   21.0132 O.3     1  <0>        -0.3350
     41 S1         22.5123   -3.8553   17.6411 S.o2    1  <0>         0.0706
     42 H1         14.9988   -2.1453   21.1896 H       1  <0>         0.0278
     43 H2         16.4725   -2.8403   20.4335 H       1  <0>         0.0278
     44 H3         15.5272   -3.8084   21.6150 H       1  <0>         0.0278
     45 H4         20.5755   -0.4258   23.1102 H       1  <0>         0.0278
     46 H5         19.4742    0.6886   22.2319 H       1  <0>         0.0278
     47 H6         19.6659    0.8333   24.0121 H       1  <0>         0.0278
     48 H7         20.3628   -5.7948   15.9979 H       1  <0>         0.0233
     49 H8         19.8452   -6.4819   14.4211 H       1  <0>         0.0233
     50 H9         21.3635   -7.0513   15.1941 H       1  <0>         0.0233
     51 H10        22.5453   -4.8411   12.4139 H       1  <0>         0.0233
     52 H11        22.6327   -6.4937   13.1122 H       1  <0>         0.0233
     53 H12        21.1144   -5.9243   12.3392 H       1  <0>         0.0233
     54 H13        13.5841   -5.3627   19.3756 H       1  <0>         0.0618
     55 H14        26.4057   -0.5248   20.0302 H       1  <0>         0.0618
     56 H15        13.7842   -3.0390   18.5613 H       1  <0>         0.0618
     57 H16        15.5761   -6.8496   19.3902 H       1  <0>         0.0618
     58 H17        27.0973   -2.2687   18.4200 H       1  <0>         0.0618
     59 H18        24.0178   -0.2491   20.6240 H       1  <0>         0.0618
     60 H19        16.9101   -2.5159   25.8763 H       1  <0>         0.0618
     61 H20        15.9710   -2.1550   17.8016 H       1  <0>         0.0621
     62 H21        17.7636   -5.9585   18.6405 H       1  <0>         0.0621
     63 H22        25.3832   -3.7019   17.3258 H       1  <0>         0.0637
     64 H23        22.3128   -1.7416   19.6089 H       1  <0>         0.0637
     65 H24        15.6595   -3.4463   23.9345 H       1  <0>         0.0621
     66 H25        18.4069   -0.5636   25.4939 H       1  <0>         0.0621
     67 H26        20.4740   -1.5460   13.5199 H       1  <0>         0.0817
     68 H27        18.8474   -0.8848   13.7975 H       1  <0>         0.0817
     69 H28        20.7991    0.7087   16.6930 H       1  <0>         0.0817
     70 H29        22.2565    0.3296   15.7330 H       1  <0>         0.0817
     71 H30        19.1284   -3.7887   18.5111 H       1  <0>         0.0514
     72 H31        18.6192   -3.9061   16.7793 H       1  <0>         0.0514
     73 H32        18.7158   -0.2431   16.6145 H       1  <0>         0.0469
     74 H33        17.6283   -1.4371   15.8146 H       1  <0>         0.0469
     75 H34        22.0272   -2.2258   14.4780 H       1  <0>         0.0483
     76 H35        23.1665   -1.7110   15.7621 H       1  <0>         0.0483
     77 H36        23.1411   -5.4101   15.6546 H       1  <0>         0.0480
     78 H37        23.4182   -4.1006   14.4516 H       1  <0>         0.0480
     79 H38        18.3254   -2.8362   20.2648 H       1  <0>         0.0662
     80 H39        19.8332   -1.8821   20.2663 H       1  <0>         0.0662
     81 H40        19.5935   -2.9102   15.4245 H       1  <0>         0.0373
     82 H41        21.0809   -1.6094   17.3493 H       1  <0>         0.0373
     83 H42        20.8301   -4.2244   14.1236 H       1  <0>         0.0311
     84 H43        21.0405    0.6006   13.9273 H       1  <0>         0.2014
     85 H44        19.7096    0.9427   14.8033 H       1  <0>         0.2014
@<TRIPOS>BOND
     1     1    25    1
     2     2    26    1
     3     3    32    1
     4     4    32    1
     5     5     7   ar
     6     5     8   ar
     7     6     9   ar
     8     6    10   ar
     9     7    12   ar
    10     8    13   ar
    11     9    14   ar
    12    10    15   ar
    13    11    16   ar
    14    11    17   ar
    15    12    27   ar
    16    13    27   ar
    17    14    28   ar
    18    15    28   ar
    19    16    25   ar
    20    17    26   ar
    21    18    30    1
    22    18    34    1
    23    19    31    1
    24    19    34    1
    25    20    27    1
    26    20    35    1
    27    21    30    1
    28    21    35    1
    29    22    31    1
    30    22    36    1
    31    23    32    1
    32    23    36    1
    33    24    33    1
    34    24    40    1
    35    25    29   ar
    36    26    29   ar
    37    28    41    1
    38    29    40    1
    39    30    31    1
    40    33    35   am
    41    33    37    2
    42    36    41    1
    43    38    41    2
    44    39    41    2
    45     1    42    1
    46     1    43    1
    47     1    44    1
    48     2    45    1
    49     2    46    1
    50     2    47    1
    51     3    48    1
    52     3    49    1
    53     3    50    1
    54     4    51    1
    55     4    52    1
    56     4    53    1
    57     5    54    1
    58     6    55    1
    59     7    56    1
    60     8    57    1
    61     9    58    1
    62    10    59    1
    63    11    60    1
    64    12    61    1
    65    13    62    1
    66    14    63    1
    67    15    64    1
    68    16    65    1
    69    17    66    1
    70    18    67    1
    71    18    68    1
    72    19    69    1
    73    19    70    1
    74    20    71    1
    75    20    72    1
    76    21    73    1
    77    21    74    1
    78    22    75    1
    79    22    76    1
    80    23    77    1
    81    23    78    1
    82    24    79    1
    83    24    80    1
    84    30    81    1
    85    31    82    1
    86    32    83    1
    87    34    84    1
    88    34    85    1
@<TRIPOS>SUBSTRUCTURE
     1 <0>         1 TEMP              0 ****  ****    0 ROOT

