
##########                                Name:      189_A1001_1XL2
##########                    Molecular_Weight:             578.796
##########                DOCK_Rotatable_Bonds:                  14
##########                       Formal_Charge:                   1
##########                     HBond_Acceptors:                   8
##########                        HBond_Donors:                   2
##########                         Heavy_Atoms:                  41
##########                            HA_RMSDs:              12.883
##########                            HA_RMSDh:              12.758
##########                            HA_RMSDm:              10.949
##########                          Grid_Score:          -83.834831
##########                     Grid_vdw_energy:          -32.668545
##########                      Grid_es_energy:          -51.166286
##########           Internal_energy_repulsive:           41.395512

@<TRIPOS>MOLECULE
189_A1001_1XL2
 85 88 1 0 0
SMALL
USER_CHARGES


@<TRIPOS>ATOM
      1 C1         19.7669  -12.1077   15.2316 C.3     1  <0>        -0.0373
      2 C2         23.3596  -10.3816   12.0545 C.3     1  <0>        -0.0373
      3 C3         16.4821  -12.7215    6.4232 C.3     1  <0>        -0.0612
      4 C4         15.8045  -11.4707    4.3626 C.3     1  <0>        -0.0612
      5 C5         15.7951  -14.2981   13.5989 C.ar    1  <0>        -0.0617
      6 C6         23.9772  -10.8260    4.5712 C.ar    1  <0>        -0.0616
      7 C7         15.5258  -12.9350   13.4543 C.ar    1  <0>        -0.0615
      8 C8         16.6359  -14.9451   12.6881 C.ar    1  <0>        -0.0615
      9 C9         22.8460  -11.2966    3.9014 C.ar    1  <0>        -0.0599
     10 C10        23.9439  -10.6128    5.9522 C.ar    1  <0>        -0.0599
     11 C11        23.5091  -12.6778   15.0933 C.ar    1  <0>        -0.0611
     12 C12        16.1015  -12.1978   12.4147 C.ar    1  <0>        -0.0571
     13 C13        17.2128  -14.2053   11.6520 C.ar    1  <0>        -0.0571
     14 C14        21.6599  -11.5351    4.6074 C.ar    1  <0>        -0.0351
     15 C15        22.7737  -10.8766    6.6673 C.ar    1  <0>        -0.0351
     16 C16        22.1610  -12.7789   15.4414 C.ar    1  <0>        -0.0564
     17 C17        23.8829  -11.7815   14.0897 C.ar    1  <0>        -0.0564
     18 C18        16.4165   -8.2807    8.0743 C.3     1  <0>        -0.0288
     19 C19        18.6551   -7.5702    8.5455 C.3     1  <0>        -0.0288
     20 C20        17.6266  -12.0601   10.3831 C.3     1  <0>         0.0398
     21 C21        17.0392   -9.5713   10.1369 C.3     1  <0>         0.0232
     22 C22        18.8400   -9.3091    6.7486 C.3     1  <0>         0.0378
     23 C23        18.1246  -11.1408    5.2848 C.3     1  <0>         0.0319
     24 C24        19.9897  -11.1996   11.8020 C.3     1  <0>         0.1304
     25 C25        21.2094  -12.0220   14.7387 C.ar    1  <0>        -0.0202
     26 C26        22.9235  -11.2046   13.2625 C.ar    1  <0>        -0.0202
     27 C27        16.9616  -12.8358   11.5228 C.ar    1  <0>        -0.0301
     28 C28        21.6382  -11.3244    5.9853 C.ar    1  <0>         0.1084
     29 C29        21.5680  -11.2500   13.6342 C.ar    1  <0>         0.0826
     30 C30        17.1919   -9.4965    8.6115 C.3     1  <0>         0.0240
     31 C31        18.6516   -9.0921    8.2755 C.3     1  <0>         0.0252
     32 C32        16.6561  -11.4099    5.6298 C.3     1  <0>        -0.0296
     33 C33        18.7934  -10.3340   11.4560 C.2     1  <0>         0.2422
     34 N1         17.2640   -7.1136    8.4139 N.4     1  <0>         0.2275
     35 N2         17.8284  -10.6698   10.6916 N.am    1  <0>        -0.2948
     36 N3         18.8686  -10.7563    6.4852 N.pl3   1  <0>        -0.2334
     37 O1         18.8766   -9.1915   11.9230 O.2     1  <0>        -0.2730
     38 O2         19.8582  -13.0406    6.5477 O.2     1  <0>        -0.1501
     39 O3         20.5499  -11.4062    8.2971 O.2     1  <0>        -0.1501
     40 O4         20.6767  -10.5320   12.8596 O.3     1  <0>        -0.3350
     41 S1         20.1285  -11.6458    6.9011 S.o2    1  <0>         0.0706
     42 H1         19.5870  -11.3211   15.9792 H       1  <0>         0.0278
     43 H2         19.0808  -11.9705   14.3828 H       1  <0>         0.0278
     44 H3         19.5933  -13.0934   15.6878 H       1  <0>         0.0278
     45 H4         23.3902  -11.0255   11.1632 H       1  <0>         0.0278
     46 H5         22.6434   -9.5631   11.8909 H       1  <0>         0.0278
     47 H6         24.3599   -9.9626   12.2384 H       1  <0>         0.0278
     48 H7         17.0938  -12.6820    7.3366 H       1  <0>         0.0233
     49 H8         15.4239  -12.8472    6.6960 H       1  <0>         0.0233
     50 H9         16.8044  -13.5707    5.8028 H       1  <0>         0.0233
     51 H10        15.9256  -10.5371    3.7936 H       1  <0>         0.0233
     52 H11        16.1275  -12.3212    3.7443 H       1  <0>         0.0233
     53 H12        14.7470  -11.5978    4.6375 H       1  <0>         0.0233
     54 H13        15.3539  -14.8522   14.4142 H       1  <0>         0.0618
     55 H14        24.8834  -10.6254    4.0188 H       1  <0>         0.0618
     56 H15        14.8652  -12.4446   14.1539 H       1  <0>         0.0618
     57 H16        16.8368  -16.0019   12.7838 H       1  <0>         0.0618
     58 H17        22.8856  -11.4769    2.8372 H       1  <0>         0.0618
     59 H18        24.8205  -10.2451    6.4647 H       1  <0>         0.0618
     60 H19        24.2514  -13.2831   15.5923 H       1  <0>         0.0618
     61 H20        15.8820  -11.1462   12.3043 H       1  <0>         0.0621
     62 H21        17.8609  -14.6977   10.9421 H       1  <0>         0.0621
     63 H22        20.7748  -11.8773    4.0916 H       1  <0>         0.0637
     64 H23        22.7461  -10.7360    7.7377 H       1  <0>         0.0637
     65 H24        21.8527  -13.4330   16.2436 H       1  <0>         0.0621
     66 H25        24.9253  -11.5338   13.9542 H       1  <0>         0.0621
     67 H26        16.2647   -8.3568    6.9875 H       1  <0>         0.0817
     68 H27        15.4266   -8.2021    8.5475 H       1  <0>         0.0817
     69 H28        19.0329   -7.3613    9.5573 H       1  <0>         0.0817
     70 H29        19.2985   -7.0534    7.8183 H       1  <0>         0.0817
     71 H30        18.6077  -12.5153   10.1818 H       1  <0>         0.0514
     72 H31        16.9795  -12.1269    9.4961 H       1  <0>         0.0514
     73 H32        17.3862   -8.6248   10.5771 H       1  <0>         0.0469
     74 H33        15.9793   -9.7340   10.3819 H       1  <0>         0.0469
     75 H34        18.0062   -8.8464    6.2003 H       1  <0>         0.0483
     76 H35        19.7848   -8.8513    6.4205 H       1  <0>         0.0483
     77 H36        18.5691  -12.0535    4.8614 H       1  <0>         0.0480
     78 H37        18.1790  -10.3245    4.5494 H       1  <0>         0.0480
     79 H38        19.6622  -12.1987   12.1251 H       1  <0>         0.0662
     80 H39        20.6474  -11.3156   10.9278 H       1  <0>         0.0662
     81 H40        16.8664  -10.4628    8.1985 H       1  <0>         0.0373
     82 H41        19.4228   -9.6434    8.8336 H       1  <0>         0.0373
     83 H42        16.3192  -10.5746    6.2613 H       1  <0>         0.0311
     84 H43        17.2001   -6.4265    7.6902 H       1  <0>         0.2014
     85 H44        16.9566   -6.7111    9.2762 H       1  <0>         0.2014
@<TRIPOS>BOND
     1     1    25    1
     2     2    26    1
     3     3    32    1
     4     4    32    1
     5     5     7   ar
     6     5     8   ar
     7     6     9   ar
     8     6    10   ar
     9     7    12   ar
    10     8    13   ar
    11     9    14   ar
    12    10    15   ar
    13    11    16   ar
    14    11    17   ar
    15    12    27   ar
    16    13    27   ar
    17    14    28   ar
    18    15    28   ar
    19    16    25   ar
    20    17    26   ar
    21    18    30    1
    22    18    34    1
    23    19    31    1
    24    19    34    1
    25    20    27    1
    26    20    35    1
    27    21    30    1
    28    21    35    1
    29    22    31    1
    30    22    36    1
    31    23    32    1
    32    23    36    1
    33    24    33    1
    34    24    40    1
    35    25    29   ar
    36    26    29   ar
    37    28    41    1
    38    29    40    1
    39    30    31    1
    40    33    35   am
    41    33    37    2
    42    36    41    1
    43    38    41    2
    44    39    41    2
    45     1    42    1
    46     1    43    1
    47     1    44    1
    48     2    45    1
    49     2    46    1
    50     2    47    1
    51     3    48    1
    52     3    49    1
    53     3    50    1
    54     4    51    1
    55     4    52    1
    56     4    53    1
    57     5    54    1
    58     6    55    1
    59     7    56    1
    60     8    57    1
    61     9    58    1
    62    10    59    1
    63    11    60    1
    64    12    61    1
    65    13    62    1
    66    14    63    1
    67    15    64    1
    68    16    65    1
    69    17    66    1
    70    18    67    1
    71    18    68    1
    72    19    69    1
    73    19    70    1
    74    20    71    1
    75    20    72    1
    76    21    73    1
    77    21    74    1
    78    22    75    1
    79    22    76    1
    80    23    77    1
    81    23    78    1
    82    24    79    1
    83    24    80    1
    84    30    81    1
    85    31    82    1
    86    32    83    1
    87    34    84    1
    88    34    85    1
@<TRIPOS>SUBSTRUCTURE
     1 <0>         1 TEMP              0 ****  ****    0 ROOT

