
##########                                Name:        61E_576_3BIZ
##########                    Molecular_Weight:             478.955
##########                DOCK_Rotatable_Bonds:                   7
##########                       Formal_Charge:              0.9999
##########                     HBond_Acceptors:                   8
##########                        HBond_Donors:                   3
##########                         Heavy_Atoms:                  34
##########                            HA_RMSDs:              10.568
##########                            HA_RMSDh:               8.718
##########                            HA_RMSDm:               6.715
##########                          Grid_Score:         -101.489586
##########                     Grid_vdw_energy:          -46.146439
##########                      Grid_es_energy:          -55.343147
##########           Internal_energy_repulsive:           14.948055

@<TRIPOS>MOLECULE
61E_576_3BIZ
 59 63 1 0 0
SMALL
USER_CHARGES


@<TRIPOS>ATOM
      1 C1          6.0913   54.8727   22.4916 C.3     1  <0>         0.0058
      2 C2          1.9495   52.5747   30.9119 C.3     1  <0>        -0.0433
      3 C3         -0.3708   52.5721   30.2861 C.3     1  <0>        -0.0433
      4 C4          7.4491   53.1510   16.0034 C.ar    1  <0>        -0.0611
      5 C5          6.9969   54.0436   15.0020 C.ar    1  <0>        -0.0603
      6 C6          6.7201   52.8863   17.1868 C.ar    1  <0>        -0.0526
      7 C7          5.8112   54.7942   15.1953 C.ar    1  <0>        -0.0428
      8 C8          1.6632   52.6016   22.9214 C.ar    1  <0>        -0.0198
      9 C9          5.2681   53.8786   19.7762 C.ar    1  <0>        -0.0312
     10 C10         3.6509   53.9860   24.4153 C.ar    1  <0>        -0.0072
     11 C11         2.6455   54.4577   28.6926 C.3     1  <0>         0.0114
     12 C12         1.1460   53.9676   28.8626 C.3     1  <0>        -0.0303
     13 C13         3.2609   54.2611   27.2624 C.3     1  <0>         0.0591
     14 C14         5.5044   53.6124   17.3973 C.ar    1  <0>         0.0012
     15 C15         5.0920   54.6142   16.4252 C.ar    1  <0>         0.0487
     16 C16         2.8058   53.1280   22.2765 C.ar    1  <0>         0.0086
     17 C17         4.7418   53.3999   18.5772 C.ar    1  <0>        -0.0019
     18 C18         4.4825   53.7731   20.9472 C.ar    1  <0>         0.0429
     19 C19         3.8160   53.7987   23.0262 C.ar    1  <0>         0.0442
     20 C20         1.4482   52.8386   24.3129 C.ar    1  <0>         0.1031
     21 C21         2.4597   53.5045   25.0439 C.ar    1  <0>         0.1076
     22 C22         3.2394   53.1231   20.9591 C.ar    1  <0>         0.0182
     23 C23         3.4799   52.7279   18.5580 C.ar    1  <0>         0.0576
     24 C24         2.7130   52.5891   19.7390 C.ar    1  <0>         0.0593
     25 C25         2.6808   52.0671   17.5254 C.2     1  <0>         0.2518
     26 C26         1.5574   51.8895   19.3346 C.2     1  <0>         0.2519
     27 N1          1.5444   51.6093   17.9984 N.am    1  <0>        -0.2483
     28 N2          4.7943   54.1379   22.1760 N.pl3   1  <0>        -0.3021
     29 N3          1.0030   52.7222   29.7347 N.4     1  <0>         0.2310
     30 O1          0.4415   52.3926   24.9186 O.3     1  <0>        -0.3573
     31 O2          2.9859   51.9484   16.3410 O.2     1  <0>        -0.2697
     32 O3          0.5957   51.6312   20.0513 O.2     1  <0>        -0.2697
     33 O4          2.2032   53.6745   26.3928 O.3     1  <0>        -0.3419
     34 Cl1         3.6874   55.6242   16.5167 Cl      1  <0>        -0.0829
     35 H1          6.1444   55.0769   23.5712 H       1  <0>         0.0432
     36 H2          6.9474   54.2494   22.1940 H       1  <0>         0.0432
     37 H3          6.1187   55.8224   21.9373 H       1  <0>         0.0432
     38 H4          2.9878   52.6772   30.5634 H       1  <0>         0.0777
     39 H5          1.7338   53.3559   31.6557 H       1  <0>         0.0777
     40 H6          1.8128   51.5840   31.3702 H       1  <0>         0.0777
     41 H7         -1.1055   52.6703   29.4733 H       1  <0>         0.0777
     42 H8         -0.4719   51.5816   30.7537 H       1  <0>         0.0777
     43 H9         -0.5509   53.3533   31.0392 H       1  <0>         0.0777
     44 H10         8.3941   52.6489   15.8573 H       1  <0>         0.0618
     45 H11         7.5587   54.1528   14.0861 H       1  <0>         0.0618
     46 H12         7.0689   52.1609   17.9070 H       1  <0>         0.0624
     47 H13         5.4586   55.4813   14.4403 H       1  <0>         0.0632
     48 H14         0.9497   52.0175   22.3590 H       1  <0>         0.0651
     49 H15         6.2533   54.3199   19.8100 H       1  <0>         0.0643
     50 H16         4.4129   54.4856   24.9952 H       1  <0>         0.0663
     51 H17         2.6700   55.5340   28.9186 H       1  <0>         0.0339
     52 H18         3.2633   53.8857   29.4006 H       1  <0>         0.0339
     53 H19         0.5720   54.7806   29.3313 H       1  <0>         0.0815
     54 H20         0.7479   53.7331   27.8643 H       1  <0>         0.0815
     55 H21         3.5900   55.2290   26.8563 H       1  <0>         0.0567
     56 H22         4.1265   53.5842   27.3133 H       1  <0>         0.0567
     57 H23         0.8190   51.1500   17.4856 H       1  <0>         0.1581
     58 H24         1.2402   52.0114   29.0725 H       1  <0>         0.2028
     59 H25         0.2712   52.9258   25.6861 H       1  <0>         0.2174
@<TRIPOS>BOND
     1     1    28    1
     2     2    29    1
     3     3    29    1
     4     4     5   ar
     5     4     6   ar
     6     5     7   ar
     7     6    14   ar
     8     7    15   ar
     9     8    16   ar
    10     8    20   ar
    11     9    17   ar
    12     9    18   ar
    13    10    19   ar
    14    10    21   ar
    15    11    12    1
    16    11    13    1
    17    12    29    1
    18    13    33    1
    19    14    15   ar
    20    14    17    1
    21    15    34    1
    22    16    19   ar
    23    16    22    1
    24    17    23   ar
    25    18    22   ar
    26    18    28    1
    27    19    28    1
    28    20    21   ar
    29    20    30    1
    30    21    33    1
    31    22    24   ar
    32    23    24   ar
    33    23    25    1
    34    24    26    1
    35    25    27   am
    36    25    31    2
    37    26    27   am
    38    26    32    2
    39     1    35    1
    40     1    36    1
    41     1    37    1
    42     2    38    1
    43     2    39    1
    44     2    40    1
    45     3    41    1
    46     3    42    1
    47     3    43    1
    48     4    44    1
    49     5    45    1
    50     6    46    1
    51     7    47    1
    52     8    48    1
    53     9    49    1
    54    10    50    1
    55    11    51    1
    56    11    52    1
    57    12    53    1
    58    12    54    1
    59    13    55    1
    60    13    56    1
    61    27    57    1
    62    29    58    1
    63    30    59    1
@<TRIPOS>SUBSTRUCTURE
     1 <0>         1 TEMP              0 ****  ****    0 ROOT

