
##########                                Name:        61E_576_3BIZ
##########                    Molecular_Weight:             478.955
##########                DOCK_Rotatable_Bonds:                   7
##########                       Formal_Charge:              0.9999
##########                     HBond_Acceptors:                   8
##########                        HBond_Donors:                   3
##########                         Heavy_Atoms:                  34
##########                            HA_RMSDs:              10.724
##########                            HA_RMSDh:               8.865
##########                            HA_RMSDm:               6.680
##########                          Grid_Score:         -102.320221
##########                     Grid_vdw_energy:          -46.709377
##########                      Grid_es_energy:          -55.610847
##########           Internal_energy_repulsive:           11.054143

@<TRIPOS>MOLECULE
61E_576_3BIZ
 59 63 1 0 0
SMALL
USER_CHARGES


@<TRIPOS>ATOM
      1 C1          7.0103   55.1750   22.3296 C.3     1  <0>         0.0058
      2 C2          0.7727   54.5654   30.6795 C.3     1  <0>        -0.0433
      3 C3          0.3215   52.3999   29.7400 C.3     1  <0>        -0.0433
      4 C4          8.7611   54.2035   15.8746 C.ar    1  <0>        -0.0611
      5 C5          8.3160   55.0754   14.8520 C.ar    1  <0>        -0.0603
      6 C6          7.9636   53.8511   16.9890 C.ar    1  <0>        -0.0526
      7 C7          7.0571   55.7166   14.9565 C.ar    1  <0>        -0.0428
      8 C8          2.4948   53.0397   22.2827 C.ar    1  <0>        -0.0198
      9 C9          6.3125   54.4952   19.4853 C.ar    1  <0>        -0.0312
     10 C10         4.4369   54.1885   24.0170 C.ar    1  <0>        -0.0072
     11 C11         3.0928   54.6076   28.1687 C.3     1  <0>         0.0114
     12 C12         1.6490   53.9630   28.3016 C.3     1  <0>        -0.0303
     13 C13         3.8607   54.2734   26.8415 C.3     1  <0>         0.0591
     14 C14         6.6757   54.4649   17.1077 C.ar    1  <0>         0.0012
     15 C15         6.2581   55.4483   16.1192 C.ar    1  <0>         0.0487
     16 C16         3.6885   53.5860   21.7583 C.ar    1  <0>         0.0086
     17 C17         5.8406   54.1617   18.2165 C.ar    1  <0>        -0.0019
     18 C18         5.4582   54.3002   20.5951 C.ar    1  <0>         0.0429
     19 C19         4.6751   54.1382   22.6268 C.ar    1  <0>         0.0442
     20 C20         2.2083   53.1412   23.6778 C.ar    1  <0>         0.1031
     21 C21         3.1970   53.6904   24.5273 C.ar    1  <0>         0.1076
     22 C22         4.1964   53.6995   20.4727 C.ar    1  <0>         0.0182
     23 C23         4.5610   53.5431   18.0598 C.ar    1  <0>         0.0576
     24 C24         3.7239   53.3132   19.1772 C.ar    1  <0>         0.0593
     25 C25         3.8016   53.0218   16.9226 C.2     1  <0>         0.2518
     26 C26         2.5716   52.7025   18.6407 C.2     1  <0>         0.2519
     27 N1          2.6261   52.5610   17.2839 N.am    1  <0>        -0.2483
     28 N2          5.7107   54.5255   21.8702 N.pl3   1  <0>        -0.3021
     29 N3          1.3051   53.5162   29.7207 N.4     1  <0>         0.2310
     30 O1          1.1549   52.6738   24.1789 O.3     1  <0>        -0.3573
     31 O2          4.1700   53.0134   15.7504 O.2     1  <0>        -0.2697
     32 O3          1.5628   52.4086   19.2741 O.2     1  <0>        -0.2697
     33 O4          2.8694   53.7312   25.8709 O.3     1  <0>        -0.3419
     34 Cl1         4.7675   56.3312   16.1077 Cl      1  <0>        -0.0829
     35 H1          7.0080   55.2655   23.4259 H       1  <0>         0.0432
     36 H2          7.8617   54.5536   22.0150 H       1  <0>         0.0432
     37 H3          7.0996   56.1746   21.8795 H       1  <0>         0.0432
     38 H4          1.4631   55.4213   30.7075 H       1  <0>         0.0777
     39 H5         -0.2171   54.9039   30.3394 H       1  <0>         0.0777
     40 H6          0.6860   54.1313   31.6865 H       1  <0>         0.0777
     41 H7          0.6563   51.6037   29.0588 H       1  <0>         0.0777
     42 H8          0.2420   51.9990   30.7612 H       1  <0>         0.0777
     43 H9         -0.6612   52.7716   29.4142 H       1  <0>         0.0777
     44 H10         9.7553   53.7882   15.8007 H       1  <0>         0.0618
     45 H11         8.9392   55.2527   13.9880 H       1  <0>         0.0618
     46 H12         8.3145   53.1430   17.7251 H       1  <0>         0.0624
     47 H13         6.7087   56.3870   14.1848 H       1  <0>         0.0632
     48 H14         1.7964   52.5434   21.6252 H       1  <0>         0.0651
     49 H15         7.3076   54.8934   19.6175 H       1  <0>         0.0643
     50 H16         5.1800   54.5972   24.6858 H       1  <0>         0.0663
     51 H17         2.9735   55.7001   28.2163 H       1  <0>         0.0339
     52 H18         3.7006   54.2343   29.0061 H       1  <0>         0.0339
     53 H19         0.9091   54.7156   27.9916 H       1  <0>         0.0815
     54 H20         1.6072   53.0806   27.6461 H       1  <0>         0.0815
     55 H21         4.3279   55.1830   26.4360 H       1  <0>         0.0567
     56 H22         4.6454   53.5276   27.0366 H       1  <0>         0.0567
     57 H23         1.9170   52.1841   16.6879 H       1  <0>         0.1581
     58 H24         2.2108   53.2472   30.0485 H       1  <0>         0.2028
     59 H25         1.1332   52.8671   25.1088 H       1  <0>         0.2174
@<TRIPOS>BOND
     1     1    28    1
     2     2    29    1
     3     3    29    1
     4     4     5   ar
     5     4     6   ar
     6     5     7   ar
     7     6    14   ar
     8     7    15   ar
     9     8    16   ar
    10     8    20   ar
    11     9    17   ar
    12     9    18   ar
    13    10    19   ar
    14    10    21   ar
    15    11    12    1
    16    11    13    1
    17    12    29    1
    18    13    33    1
    19    14    15   ar
    20    14    17    1
    21    15    34    1
    22    16    19   ar
    23    16    22    1
    24    17    23   ar
    25    18    22   ar
    26    18    28    1
    27    19    28    1
    28    20    21   ar
    29    20    30    1
    30    21    33    1
    31    22    24   ar
    32    23    24   ar
    33    23    25    1
    34    24    26    1
    35    25    27   am
    36    25    31    2
    37    26    27   am
    38    26    32    2
    39     1    35    1
    40     1    36    1
    41     1    37    1
    42     2    38    1
    43     2    39    1
    44     2    40    1
    45     3    41    1
    46     3    42    1
    47     3    43    1
    48     4    44    1
    49     5    45    1
    50     6    46    1
    51     7    47    1
    52     8    48    1
    53     9    49    1
    54    10    50    1
    55    11    51    1
    56    11    52    1
    57    12    53    1
    58    12    54    1
    59    13    55    1
    60    13    56    1
    61    27    57    1
    62    29    58    1
    63    30    59    1
@<TRIPOS>SUBSTRUCTURE
     1 <0>         1 TEMP              0 ****  ****    0 ROOT

