
##########                                Name:        61E_576_3BIZ
##########                    Molecular_Weight:             478.955
##########                DOCK_Rotatable_Bonds:                   7
##########                       Formal_Charge:              0.9999
##########                     HBond_Acceptors:                   8
##########                        HBond_Donors:                   3
##########                         Heavy_Atoms:                  34
##########                            HA_RMSDs:              10.692
##########                            HA_RMSDh:               8.831
##########                            HA_RMSDm:               6.678
##########                          Grid_Score:         -100.324036
##########                     Grid_vdw_energy:          -45.108540
##########                      Grid_es_energy:          -55.215492
##########           Internal_energy_repulsive:           14.214850

@<TRIPOS>MOLECULE
61E_576_3BIZ
 59 63 1 0 0
SMALL
USER_CHARGES


@<TRIPOS>ATOM
      1 C1          6.6184   54.9476   22.5603 C.3     1  <0>         0.0058
      2 C2          1.4994   53.2039   30.8657 C.3     1  <0>        -0.0433
      3 C3         -0.4072   52.2709   29.7389 C.3     1  <0>        -0.0433
      4 C4          8.6872   53.9892   16.2029 C.ar    1  <0>        -0.0611
      5 C5          8.2995   54.8618   15.1578 C.ar    1  <0>        -0.0603
      6 C6          7.8311   53.6410   17.2744 C.ar    1  <0>        -0.0526
      7 C7          7.0395   55.5080   15.1958 C.ar    1  <0>        -0.0428
      8 C8          2.0901   52.8583   22.2764 C.ar    1  <0>        -0.0198
      9 C9          6.0586   54.2853   19.6815 C.ar    1  <0>        -0.0312
     10 C10         3.9533   53.9811   24.1114 C.ar    1  <0>        -0.0072
     11 C11         2.4795   54.4305   28.1744 C.3     1  <0>         0.0114
     12 C12         1.0433   53.7843   28.3677 C.3     1  <0>        -0.0303
     13 C13         3.2802   53.9310   26.9205 C.3     1  <0>         0.0591
     14 C14         6.5413   54.2600   17.3252 C.ar    1  <0>         0.0012
     15 C15         6.1798   55.2441   16.3155 C.ar    1  <0>         0.0487
     16 C16         3.3142   53.3944   21.8152 C.ar    1  <0>         0.0086
     17 C17         5.6482   53.9613   18.3891 C.ar    1  <0>        -0.0019
     18 C18         5.1474   54.0949   20.7459 C.ar    1  <0>         0.0429
     19 C19         4.2610   53.9334   22.7347 C.ar    1  <0>         0.0442
     20 C20         1.7344   52.9576   23.6556 C.ar    1  <0>         0.1031
     21 C21         2.6843   53.4936   24.5563 C.ar    1  <0>         0.1076
     22 C22         3.8875   53.5075   20.5574 C.ar    1  <0>         0.0182
     23 C23         4.3721   53.3562   18.1654 C.ar    1  <0>         0.0576
     24 C24         3.4773   53.1307   19.2381 C.ar    1  <0>         0.0593
     25 C25         3.6661   52.8468   16.9892 C.2     1  <0>         0.2518
     26 C26         2.3476   52.5337   18.6416 C.2     1  <0>         0.2519
     27 N1          2.4692   52.3966   17.2886 N.am    1  <0>        -0.2483
     28 N2          5.3373   54.3130   22.0330 N.pl3   1  <0>        -0.3021
     29 N3          0.9748   52.7717   29.5087 N.4     1  <0>         0.2310
     30 O1          0.6524   52.4991   24.1009 O.3     1  <0>        -0.3573
     31 O2          4.0932   52.8389   15.8370 O.2     1  <0>        -0.2697
     32 O3          1.3052   52.2476   19.2219 O.2     1  <0>        -0.2697
     33 O4          2.2896   53.5329   25.8818 O.3     1  <0>        -0.3419
     34 Cl1         4.6954   56.1328   16.2255 Cl      1  <0>        -0.0829
     35 H1          6.5616   55.0342   23.6554 H       1  <0>         0.0432
     36 H2          7.4785   54.3188   22.2865 H       1  <0>         0.0432
     37 H3          6.7402   55.9479   22.1194 H       1  <0>         0.0432
     38 H4          2.5252   53.5863   30.7581 H       1  <0>         0.0777
     39 H5          0.8538   53.9961   31.2729 H       1  <0>         0.0777
     40 H6          1.4992   52.3426   31.5500 H       1  <0>         0.0777
     41 H7         -0.8421   51.9411   28.7838 H       1  <0>         0.0777
     42 H8         -0.3781   51.4240   30.4402 H       1  <0>         0.0777
     43 H9         -1.0234   53.0773   30.1630 H       1  <0>         0.0777
     44 H10         9.6822   53.5698   16.1813 H       1  <0>         0.0618
     45 H11         8.9677   55.0357   14.3273 H       1  <0>         0.0618
     46 H12         8.1403   52.9323   18.0284 H       1  <0>         0.0624
     47 H13         6.7345   56.1791   14.4065 H       1  <0>         0.0632
     48 H14         1.4210   52.3715   21.5823 H       1  <0>         0.0651
     49 H15         7.0497   54.6729   19.8655 H       1  <0>         0.0643
     50 H16         4.6657   54.3798   24.8185 H       1  <0>         0.0663
     51 H17         2.3425   55.5168   28.0688 H       1  <0>         0.0339
     52 H18         3.0752   54.1868   29.0665 H       1  <0>         0.0339
     53 H19         0.3311   54.5937   28.5860 H       1  <0>         0.0815
     54 H20         0.7731   53.2669   27.4353 H       1  <0>         0.0815
     55 H21         3.9250   54.7363   26.5387 H       1  <0>         0.0567
     56 H22         3.9093   53.0706   27.1922 H       1  <0>         0.0567
     57 H23         1.7875   52.0291   16.6560 H       1  <0>         0.1581
     58 H24         1.5947   52.0681   29.1615 H       1  <0>         0.2028
     59 H25         0.5171   52.8108   24.9880 H       1  <0>         0.2174
@<TRIPOS>BOND
     1     1    28    1
     2     2    29    1
     3     3    29    1
     4     4     5   ar
     5     4     6   ar
     6     5     7   ar
     7     6    14   ar
     8     7    15   ar
     9     8    16   ar
    10     8    20   ar
    11     9    17   ar
    12     9    18   ar
    13    10    19   ar
    14    10    21   ar
    15    11    12    1
    16    11    13    1
    17    12    29    1
    18    13    33    1
    19    14    15   ar
    20    14    17    1
    21    15    34    1
    22    16    19   ar
    23    16    22    1
    24    17    23   ar
    25    18    22   ar
    26    18    28    1
    27    19    28    1
    28    20    21   ar
    29    20    30    1
    30    21    33    1
    31    22    24   ar
    32    23    24   ar
    33    23    25    1
    34    24    26    1
    35    25    27   am
    36    25    31    2
    37    26    27   am
    38    26    32    2
    39     1    35    1
    40     1    36    1
    41     1    37    1
    42     2    38    1
    43     2    39    1
    44     2    40    1
    45     3    41    1
    46     3    42    1
    47     3    43    1
    48     4    44    1
    49     5    45    1
    50     6    46    1
    51     7    47    1
    52     8    48    1
    53     9    49    1
    54    10    50    1
    55    11    51    1
    56    11    52    1
    57    12    53    1
    58    12    54    1
    59    13    55    1
    60    13    56    1
    61    27    57    1
    62    29    58    1
    63    30    59    1
@<TRIPOS>SUBSTRUCTURE
     1 <0>         1 TEMP              0 ****  ****    0 ROOT

