
##########                                Name:        61E_576_3BIZ
##########                    Molecular_Weight:             478.955
##########                DOCK_Rotatable_Bonds:                   7
##########                       Formal_Charge:              0.9999
##########                     HBond_Acceptors:                   8
##########                        HBond_Donors:                   3
##########                         Heavy_Atoms:                  34
##########                            HA_RMSDs:              10.839
##########                            HA_RMSDh:               9.479
##########                            HA_RMSDm:               8.121
##########                          Grid_Score:          -96.716011
##########                     Grid_vdw_energy:          -40.459332
##########                      Grid_es_energy:          -56.256680
##########           Internal_energy_repulsive:           11.138288

@<TRIPOS>MOLECULE
61E_576_3BIZ
 59 63 1 0 0
SMALL
USER_CHARGES


@<TRIPOS>ATOM
      1 C1          3.1292   52.2827   21.7648 C.3     1  <0>         0.0058
      2 C2          2.5177   52.4894   30.7256 C.3     1  <0>        -0.0433
      3 C3          0.3584   53.3087   31.3903 C.3     1  <0>        -0.0433
      4 C4          1.7798   47.7110   16.7400 C.ar    1  <0>        -0.0611
      5 C5          0.9745   48.2510   15.7086 C.ar    1  <0>        -0.0603
      6 C6          1.6163   48.0502   18.1039 C.ar    1  <0>        -0.0526
      7 C7          0.0104   49.2469   16.0011 C.ar    1  <0>        -0.0428
      8 C8         -0.5199   50.8869   24.8773 C.ar    1  <0>        -0.0198
      9 C9          1.3626   50.3159   20.3332 C.ar    1  <0>        -0.0312
     10 C10         1.7731   52.5616   24.6848 C.ar    1  <0>        -0.0072
     11 C11         2.7366   54.5301   28.5604 C.3     1  <0>         0.0114
     12 C12         1.4153   54.4665   29.4367 C.3     1  <0>        -0.0303
     13 C13         2.6976   53.7120   27.2218 C.3     1  <0>         0.0591
     14 C14         0.6316   49.0363   18.4321 C.ar    1  <0>         0.0012
     15 C15        -0.1215   49.6780   17.3646 C.ar    1  <0>         0.0487
     16 C16         0.2094   50.9655   23.6688 C.ar    1  <0>         0.0086
     17 C17         0.4380   49.4286   19.7838 C.ar    1  <0>        -0.0019
     18 C18         1.1349   50.8029   21.6410 C.ar    1  <0>         0.0429
     19 C19         1.3738   51.7830   23.5774 C.ar    1  <0>         0.0442
     20 C20        -0.1693   51.7164   25.9853 C.ar    1  <0>         0.1031
     21 C21         0.9891   52.5215   25.8804 C.ar    1  <0>         0.1076
     22 C22         0.0673   50.3534   22.4324 C.ar    1  <0>         0.0182
     23 C23        -0.6575   48.9481   20.5671 C.ar    1  <0>         0.0576
     24 C24        -0.8610   49.4075   21.8899 C.ar    1  <0>         0.0593
     25 C25        -1.7461   47.9967   20.3406 C.2     1  <0>         0.2518
     26 C26        -2.0144   48.7266   22.3311 C.2     1  <0>         0.2519
     27 N1         -2.5458   47.9056   21.3784 N.am    1  <0>        -0.2483
     28 N2          1.8866   51.6229   22.3500 N.pl3   1  <0>        -0.3021
     29 N3          1.2568   53.1614   30.2135 N.4     1  <0>         0.2310
     30 O1         -0.7982   51.6792   27.0727 O.3     1  <0>        -0.3573
     31 O2         -1.9408   47.3525   19.3124 O.2     1  <0>        -0.2697
     32 O3         -2.5737   48.9007   23.4092 O.2     1  <0>        -0.2697
     33 O4          1.2905   53.2769   26.9996 O.3     1  <0>        -0.3419
     34 Cl1        -1.3180   50.9176   17.5469 Cl      1  <0>        -0.0829
     35 H1          3.5992   52.9216   22.5270 H       1  <0>         0.0432
     36 H2          3.8412   51.5067   21.4473 H       1  <0>         0.0432
     37 H3          2.8443   52.8962   20.8974 H       1  <0>         0.0432
     38 H4          3.2248   52.3532   29.8941 H       1  <0>         0.0777
     39 H5          2.9797   53.1191   31.5002 H       1  <0>         0.0777
     40 H6          2.2623   51.5090   31.1540 H       1  <0>         0.0777
     41 H7         -0.5786   53.7932   31.0786 H       1  <0>         0.0777
     42 H8          0.1361   52.3158   31.8083 H       1  <0>         0.0777
     43 H9          0.8535   53.9258   32.1545 H       1  <0>         0.0777
     44 H10         2.5548   47.0076   16.4735 H       1  <0>         0.0618
     45 H11         1.0957   47.9021   14.6938 H       1  <0>         0.0618
     46 H12         2.2140   47.5812   18.8715 H       1  <0>         0.0624
     47 H13        -0.6068   49.6694   15.2220 H       1  <0>         0.0632
     48 H14        -1.3458   50.1964   24.9628 H       1  <0>         0.0651
     49 H15         2.2328   50.6241   19.7727 H       1  <0>         0.0643
     50 H16         2.6578   53.1787   24.6302 H       1  <0>         0.0663
     51 H17         2.9105   55.5845   28.2993 H       1  <0>         0.0339
     52 H18         3.5586   54.1279   29.1707 H       1  <0>         0.0339
     53 H19         1.4459   55.2937   30.1612 H       1  <0>         0.0815
     54 H20         0.5526   54.5694   28.7621 H       1  <0>         0.0815
     55 H21         3.0354   54.3407   26.3847 H       1  <0>         0.0567
     56 H22         3.3571   52.8347   27.2959 H       1  <0>         0.0567
     57 H23        -3.3734   47.3495   21.4550 H       1  <0>         0.1581
     58 H24         0.8761   52.5731   29.5000 H       1  <0>         0.2028
     59 H25        -0.4946   52.3792   27.6387 H       1  <0>         0.2174
@<TRIPOS>BOND
     1     1    28    1
     2     2    29    1
     3     3    29    1
     4     4     5   ar
     5     4     6   ar
     6     5     7   ar
     7     6    14   ar
     8     7    15   ar
     9     8    16   ar
    10     8    20   ar
    11     9    17   ar
    12     9    18   ar
    13    10    19   ar
    14    10    21   ar
    15    11    12    1
    16    11    13    1
    17    12    29    1
    18    13    33    1
    19    14    15   ar
    20    14    17    1
    21    15    34    1
    22    16    19   ar
    23    16    22    1
    24    17    23   ar
    25    18    22   ar
    26    18    28    1
    27    19    28    1
    28    20    21   ar
    29    20    30    1
    30    21    33    1
    31    22    24   ar
    32    23    24   ar
    33    23    25    1
    34    24    26    1
    35    25    27   am
    36    25    31    2
    37    26    27   am
    38    26    32    2
    39     1    35    1
    40     1    36    1
    41     1    37    1
    42     2    38    1
    43     2    39    1
    44     2    40    1
    45     3    41    1
    46     3    42    1
    47     3    43    1
    48     4    44    1
    49     5    45    1
    50     6    46    1
    51     7    47    1
    52     8    48    1
    53     9    49    1
    54    10    50    1
    55    11    51    1
    56    11    52    1
    57    12    53    1
    58    12    54    1
    59    13    55    1
    60    13    56    1
    61    27    57    1
    62    29    58    1
    63    30    59    1
@<TRIPOS>SUBSTRUCTURE
     1 <0>         1 TEMP              0 ****  ****    0 ROOT

