
##########                                Name:        61E_576_3BIZ
##########                    Molecular_Weight:             478.955
##########                DOCK_Rotatable_Bonds:                   7
##########                       Formal_Charge:              0.9999
##########                     HBond_Acceptors:                   8
##########                        HBond_Donors:                   3
##########                         Heavy_Atoms:                  34
##########                            HA_RMSDs:              10.776
##########                            HA_RMSDh:               8.928
##########                            HA_RMSDm:               6.725
##########                          Grid_Score:          -99.504364
##########                     Grid_vdw_energy:          -43.685745
##########                      Grid_es_energy:          -55.818619
##########           Internal_energy_repulsive:           11.396281

@<TRIPOS>MOLECULE
61E_576_3BIZ
 59 63 1 0 0
SMALL
USER_CHARGES


@<TRIPOS>ATOM
      1 C1          6.6537   55.2948   22.3519 C.3     1  <0>         0.0058
      2 C2          1.5268   53.7889   30.8008 C.3     1  <0>        -0.0433
      3 C3         -0.1859   52.3336   29.9497 C.3     1  <0>        -0.0433
      4 C4          8.8994   54.1136   16.0093 C.ar    1  <0>        -0.0611
      5 C5          8.5308   55.0376   15.0022 C.ar    1  <0>        -0.0603
      6 C6          8.0380   53.7436   17.0691 C.ar    1  <0>        -0.0526
      7 C7          7.2876   55.7132   15.0715 C.ar    1  <0>        -0.0428
      8 C8          2.2954   52.8728   22.0505 C.ar    1  <0>        -0.0198
      9 C9          6.2189   54.4777   19.4914 C.ar    1  <0>        -0.0312
     10 C10         4.0245   54.2011   23.8796 C.ar    1  <0>        -0.0072
     11 C11         2.4998   54.4021   27.9922 C.3     1  <0>         0.0114
     12 C12         1.2304   53.4806   28.2313 C.3     1  <0>        -0.0303
     13 C13         3.3199   54.0951   26.6899 C.3     1  <0>         0.0591
     14 C14         6.7643   54.3922   17.1502 C.ar    1  <0>         0.0012
     15 C15         6.4248   55.4255   16.1829 C.ar    1  <0>         0.0487
     16 C16         3.4899   53.4772   21.5959 C.ar    1  <0>         0.0086
     17 C17         5.8671   54.0727   18.2046 C.ar    1  <0>        -0.0019
     18 C18         5.2959   54.2650   20.5412 C.ar    1  <0>         0.0429
     19 C19         4.3710   54.1202   22.5138 C.ar    1  <0>         0.0442
     20 C20         1.8973   53.0017   23.4156 C.ar    1  <0>         0.1031
     21 C21         2.7823   53.6413   24.3148 C.ar    1  <0>         0.1076
     22 C22         4.0867   53.5805   20.3483 C.ar    1  <0>         0.0182
     23 C23         4.6439   53.3681   17.9768 C.ar    1  <0>         0.0576
     24 C24         3.7395   53.1219   19.0368 C.ar    1  <0>         0.0593
     25 C25         4.0074   52.7617   16.8069 C.2     1  <0>         0.2518
     26 C26         2.6715   52.4209   18.4397 C.2     1  <0>         0.2519
     27 N1          2.8383   52.2383   17.0970 N.am    1  <0>        -0.2483
     28 N2          5.4356   54.5481   21.8221 N.pl3   1  <0>        -0.3021
     29 N3          1.1592   52.8873   29.6366 N.4     1  <0>         0.2310
     30 O1          0.8395   52.4843   23.8544 O.3     1  <0>        -0.3573
     31 O2          4.4643   52.7382   15.6664 O.2     1  <0>        -0.2697
     32 O3          1.6372   52.0837   19.0070 O.2     1  <0>        -0.2697
     33 O4          2.3509   53.7054   25.6278 O.3     1  <0>        -0.3419
     34 Cl1         4.9631   56.3541   16.1350 Cl      1  <0>        -0.0829
     35 H1          6.5619   55.4213   23.4408 H       1  <0>         0.0432
     36 H2          7.5635   54.7195   22.1252 H       1  <0>         0.0432
     37 H3          6.7153   56.2827   21.8721 H       1  <0>         0.0432
     38 H4          2.5189   54.2301   30.6246 H       1  <0>         0.0777
     39 H5          0.7800   54.5913   30.8930 H       1  <0>         0.0777
     40 H6          1.5477   53.1988   31.7290 H       1  <0>         0.0777
     41 H7         -0.5075   51.6676   29.1355 H       1  <0>         0.0777
     42 H8         -0.1386   51.7658   30.8907 H       1  <0>         0.0777
     43 H9         -0.9063   53.1582   30.0548 H       1  <0>         0.0777
     44 H10         9.8835   53.6706   15.9668 H       1  <0>         0.0618
     45 H11         9.2008   55.2285   14.1769 H       1  <0>         0.0618
     46 H12         8.3314   52.9971   17.7924 H       1  <0>         0.0624
     47 H13         6.9974   56.4234   14.3114 H       1  <0>         0.0632
     48 H14         1.6814   52.3111   21.3622 H       1  <0>         0.0651
     49 H15         7.1746   54.9433   19.6820 H       1  <0>         0.0643
     50 H16         4.6876   54.6787   24.5858 H       1  <0>         0.0663
     51 H17         2.1465   55.4416   27.9239 H       1  <0>         0.0339
     52 H18         3.1754   54.2643   28.8493 H       1  <0>         0.0339
     53 H19         0.3298   54.0920   28.0726 H       1  <0>         0.0815
     54 H20         1.2708   52.6499   27.5115 H       1  <0>         0.0815
     55 H21         3.8827   54.9876   26.3787 H       1  <0>         0.0567
     56 H22         4.0287   53.2745   26.8744 H       1  <0>         0.0567
     57 H23         2.2015   51.7970   16.4647 H       1  <0>         0.1581
     58 H24         1.8675   52.1845   29.5706 H       1  <0>         0.2028
     59 H25         0.6756   52.7970   24.7364 H       1  <0>         0.2174
@<TRIPOS>BOND
     1     1    28    1
     2     2    29    1
     3     3    29    1
     4     4     5   ar
     5     4     6   ar
     6     5     7   ar
     7     6    14   ar
     8     7    15   ar
     9     8    16   ar
    10     8    20   ar
    11     9    17   ar
    12     9    18   ar
    13    10    19   ar
    14    10    21   ar
    15    11    12    1
    16    11    13    1
    17    12    29    1
    18    13    33    1
    19    14    15   ar
    20    14    17    1
    21    15    34    1
    22    16    19   ar
    23    16    22    1
    24    17    23   ar
    25    18    22   ar
    26    18    28    1
    27    19    28    1
    28    20    21   ar
    29    20    30    1
    30    21    33    1
    31    22    24   ar
    32    23    24   ar
    33    23    25    1
    34    24    26    1
    35    25    27   am
    36    25    31    2
    37    26    27   am
    38    26    32    2
    39     1    35    1
    40     1    36    1
    41     1    37    1
    42     2    38    1
    43     2    39    1
    44     2    40    1
    45     3    41    1
    46     3    42    1
    47     3    43    1
    48     4    44    1
    49     5    45    1
    50     6    46    1
    51     7    47    1
    52     8    48    1
    53     9    49    1
    54    10    50    1
    55    11    51    1
    56    11    52    1
    57    12    53    1
    58    12    54    1
    59    13    55    1
    60    13    56    1
    61    27    57    1
    62    29    58    1
    63    30    59    1
@<TRIPOS>SUBSTRUCTURE
     1 <0>         1 TEMP              0 ****  ****    0 ROOT

