
##########                                Name:        61E_576_3BIZ
##########                    Molecular_Weight:             478.955
##########                DOCK_Rotatable_Bonds:                   7
##########                       Formal_Charge:              0.9999
##########                     HBond_Acceptors:                   8
##########                        HBond_Donors:                   3
##########                         Heavy_Atoms:                  34
##########                            HA_RMSDs:               0.368
##########                            HA_RMSDh:               0.368
##########                            HA_RMSDm:               0.368
##########                          Grid_Score:          -98.978928
##########                     Grid_vdw_energy:          -58.959702
##########                      Grid_es_energy:          -40.019230
##########           Internal_energy_repulsive:           16.606236

@<TRIPOS>MOLECULE
61E_576_3BIZ
 59 63 1 0 0
SMALL
USER_CHARGES


@<TRIPOS>ATOM
      1 C1          1.3692   53.2873   22.8510 C.3     1  <0>         0.0058
      2 C2          6.9305   52.4101   15.5037 C.3     1  <0>        -0.0433
      3 C3          8.8222   52.3678   16.9854 C.3     1  <0>        -0.0433
      4 C4         -0.2734   51.7732   29.1317 C.ar    1  <0>        -0.0611
      5 C5         -0.4954   52.6903   30.1870 C.ar    1  <0>        -0.0603
      6 C6          0.6877   51.9853   28.1151 C.ar    1  <0>        -0.0526
      7 C7          0.1899   53.9298   30.2136 C.ar    1  <0>        -0.0428
      8 C8          6.1304   54.6750   23.4486 C.ar    1  <0>        -0.0198
      9 C9          1.9698   53.3715   25.7957 C.ar    1  <0>        -0.0312
     10 C10         4.1518   54.1712   21.4659 C.ar    1  <0>        -0.0072
     11 C11         5.6085   54.6056   17.3362 C.3     1  <0>         0.0114
     12 C12         7.1297   54.1624   17.4208 C.3     1  <0>        -0.0303
     13 C13         4.8426   54.6517   18.7052 C.3     1  <0>         0.0591
     14 C14         1.4136   53.2191   28.1309 C.ar    1  <0>         0.0012
     15 C15         1.1096   54.2148   29.1481 C.ar    1  <0>         0.0487
     16 C16         4.8148   54.3194   23.8246 C.ar    1  <0>         0.0086
     17 C17         2.3774   53.4925   27.1235 C.ar    1  <0>        -0.0019
     18 C18         2.8775   53.7386   24.7756 C.ar    1  <0>         0.0429
     19 C19         3.8287   54.0406   22.8336 C.ar    1  <0>         0.0442
     20 C20         6.4570   54.8756   22.0732 C.ar    1  <0>         0.1031
     21 C21         5.4687   54.5939   21.1012 C.ar    1  <0>         0.1076
     22 C22         4.1966   54.1284   25.0514 C.ar    1  <0>         0.0182
     23 C23         3.7171   53.8822   27.4365 C.ar    1  <0>         0.0576
     24 C24         4.6358   54.2115   26.4119 C.ar    1  <0>         0.0593
     25 C25         4.4789   54.0465   28.6751 C.2     1  <0>         0.2518
     26 C26         5.8265   54.5407   27.0918 C.2     1  <0>         0.2519
     27 N1          5.7043   54.4617   28.4494 N.am    1  <0>        -0.2483
     28 N2          2.7052   53.6813   23.4690 N.pl3   1  <0>        -0.3021
     29 N3          7.3847   52.7451   16.9126 N.4     1  <0>         0.2310
     30 O1          7.6132   55.1985   21.7016 O.3     1  <0>        -0.3573
     31 O2          4.0589   53.8511   29.8133 O.2     1  <0>        -0.2697
     32 O3          6.8533   54.9580   26.5657 O.2     1  <0>        -0.2697
     33 O4          5.8590   54.7787   19.7868 O.3     1  <0>        -0.3419
     34 Cl1         1.8387   55.7778   29.3126 Cl      1  <0>        -0.0829
     35 H1          1.4522   53.3058   21.7543 H       1  <0>         0.0432
     36 H2          1.0974   52.2738   23.1810 H       1  <0>         0.0432
     37 H3          0.5933   53.9979   23.1718 H       1  <0>         0.0432
     38 H4          5.8677   52.6693   15.3892 H       1  <0>         0.0777
     39 H5          7.5277   52.9841   14.7799 H       1  <0>         0.0777
     40 H6          7.0673   51.3341   15.3207 H       1  <0>         0.0777
     41 H7          9.2094   52.5893   17.9909 H       1  <0>         0.0777
     42 H8          8.9298   51.2926   16.7799 H       1  <0>         0.0777
     43 H9          9.3902   52.9426   16.2391 H       1  <0>         0.0777
     44 H10        -0.8649   50.8701   29.1012 H       1  <0>         0.0618
     45 H11        -1.1907   52.4438   30.9758 H       1  <0>         0.0618
     46 H12         0.8676   51.2414   27.3530 H       1  <0>         0.0624
     47 H13         0.0257   54.6392   31.0112 H       1  <0>         0.0632
     48 H14         6.8917   54.7954   24.2051 H       1  <0>         0.0651
     49 H15         0.9832   53.0058   25.5519 H       1  <0>         0.0643
     50 H16         3.4156   53.9551   20.7058 H       1  <0>         0.0663
     51 H17         5.5818   55.6183   16.9074 H       1  <0>         0.0339
     52 H18         5.0884   53.8833   16.6898 H       1  <0>         0.0339
     53 H19         7.7224   54.8570   16.8075 H       1  <0>         0.0815
     54 H20         7.4408   54.2084   18.4749 H       1  <0>         0.0815
     55 H21         4.1585   55.5128   18.7266 H       1  <0>         0.0567
     56 H22         4.2581   53.7300   18.8423 H       1  <0>         0.0567
     57 H23         6.4037   54.6758   29.1313 H       1  <0>         0.1581
     58 H24         6.8093   52.2227   17.5418 H       1  <0>         0.2028
     59 H25         7.6215   55.3188   20.7594 H       1  <0>         0.2174
@<TRIPOS>BOND
     1     1    28    1
     2     2    29    1
     3     3    29    1
     4     4     5   ar
     5     4     6   ar
     6     5     7   ar
     7     6    14   ar
     8     7    15   ar
     9     8    16   ar
    10     8    20   ar
    11     9    17   ar
    12     9    18   ar
    13    10    19   ar
    14    10    21   ar
    15    11    12    1
    16    11    13    1
    17    12    29    1
    18    13    33    1
    19    14    15   ar
    20    14    17    1
    21    15    34    1
    22    16    19   ar
    23    16    22    1
    24    17    23   ar
    25    18    22   ar
    26    18    28    1
    27    19    28    1
    28    20    21   ar
    29    20    30    1
    30    21    33    1
    31    22    24   ar
    32    23    24   ar
    33    23    25    1
    34    24    26    1
    35    25    27   am
    36    25    31    2
    37    26    27   am
    38    26    32    2
    39     1    35    1
    40     1    36    1
    41     1    37    1
    42     2    38    1
    43     2    39    1
    44     2    40    1
    45     3    41    1
    46     3    42    1
    47     3    43    1
    48     4    44    1
    49     5    45    1
    50     6    46    1
    51     7    47    1
    52     8    48    1
    53     9    49    1
    54    10    50    1
    55    11    51    1
    56    11    52    1
    57    12    53    1
    58    12    54    1
    59    13    55    1
    60    13    56    1
    61    27    57    1
    62    29    58    1
    63    30    59    1
@<TRIPOS>SUBSTRUCTURE
     1 <0>         1 TEMP              0 ****  ****    0 ROOT

