
##########                                Name:        61E_576_3BIZ
##########                    Molecular_Weight:             478.955
##########                DOCK_Rotatable_Bonds:                   7
##########                       Formal_Charge:              0.9999
##########                     HBond_Acceptors:                   8
##########                        HBond_Donors:                   3
##########                         Heavy_Atoms:                  34
##########                            HA_RMSDs:              10.635
##########                            HA_RMSDh:               8.785
##########                            HA_RMSDm:               6.739
##########                          Grid_Score:          -99.512009
##########                     Grid_vdw_energy:          -44.794071
##########                      Grid_es_energy:          -54.717941
##########           Internal_energy_repulsive:           15.424816

@<TRIPOS>MOLECULE
61E_576_3BIZ
 59 63 1 0 0
SMALL
USER_CHARGES


@<TRIPOS>ATOM
      1 C1          6.1034   54.7268   22.5279 C.3     1  <0>         0.0058
      2 C2          1.8166   52.6798   30.5705 C.3     1  <0>        -0.0433
      3 C3         -0.5111   52.3995   30.0426 C.3     1  <0>        -0.0433
      4 C4          7.8669   53.3996   16.1539 C.ar    1  <0>        -0.0611
      5 C5          7.4327   54.2027   15.0720 C.ar    1  <0>        -0.0603
      6 C6          7.0593   53.1240   17.2825 C.ar    1  <0>        -0.0526
      7 C7          6.1750   54.8524   15.1232 C.ar    1  <0>        -0.0428
      8 C8          1.5450   52.6845   22.5738 C.ar    1  <0>        -0.0198
      9 C9          5.4016   53.9113   19.7205 C.ar    1  <0>        -0.0312
     10 C10         3.5044   53.8840   24.2535 C.ar    1  <0>        -0.0072
     11 C11         2.1771   54.6517   28.3209 C.3     1  <0>         0.0114
     12 C12         0.7522   54.0128   28.6020 C.3     1  <0>        -0.0303
     13 C13         2.9407   54.0756   27.0768 C.3     1  <0>         0.0591
     14 C14         5.7723   53.7474   17.3495 C.ar    1  <0>         0.0012
     15 C15         5.3657   54.6640   16.2945 C.ar    1  <0>         0.0487
     16 C16         2.7516   53.1778   22.0265 C.ar    1  <0>         0.0086
     17 C17         4.9273   53.5206   18.4690 C.ar    1  <0>        -0.0019
     18 C18         4.5397   53.7930   20.8352 C.ar    1  <0>         0.0429
     19 C19         3.7463   53.7550   22.8690 C.ar    1  <0>         0.0442
     20 C20         1.2559   52.8658   23.9602 C.ar    1  <0>         0.1031
     21 C21         2.2528   53.4390   24.7839 C.ar    1  <0>         0.1076
     22 C22         3.2662   53.2125   20.7391 C.ar    1  <0>         0.0182
     23 C23         3.6358   52.9208   18.3395 C.ar    1  <0>         0.0576
     24 C24         2.7903   52.7676   19.4637 C.ar    1  <0>         0.0593
     25 C25         2.8698   52.3554   17.2282 C.2     1  <0>         0.2518
     26 C26         1.6275   52.1530   18.9552 C.2     1  <0>         0.2519
     27 N1          1.6837   51.9385   17.6080 N.am    1  <0>        -0.2483
     28 N2          4.7923   54.0805   22.0976 N.pl3   1  <0>        -0.3021
     29 N3          0.8064   52.7370   29.4393 N.4     1  <0>         0.2310
     30 O1          0.1914   52.4472   24.4806 O.3     1  <0>        -0.3573
     31 O2          3.2420   52.2773   16.0597 O.2     1  <0>        -0.2697
     32 O3          0.6107   51.9137   19.5986 O.2     1  <0>        -0.2697
     33 O4          1.9214   53.5578   26.1219 O.3     1  <0>        -0.3419
     34 Cl1         3.8779   55.5478   16.2120 Cl      1  <0>        -0.0829
     35 H1          6.0992   54.8754   23.6179 H       1  <0>         0.0432
     36 H2          6.9430   54.0724   22.2505 H       1  <0>         0.0432
     37 H3          6.2148   55.6991   22.0258 H       1  <0>         0.0432
     38 H4          2.8168   52.9222   30.1823 H       1  <0>         0.0777
     39 H5          1.5387   53.4075   31.3472 H       1  <0>         0.0777
     40 H6          1.8263   51.6681   31.0024 H       1  <0>         0.0777
     41 H7         -1.2885   52.4251   29.2649 H       1  <0>         0.0777
     42 H8         -0.4657   51.3922   30.4823 H       1  <0>         0.0777
     43 H9         -0.7533   53.1315   30.8271 H       1  <0>         0.0777
     44 H10         8.8604   52.9778   16.1160 H       1  <0>         0.0618
     45 H11         8.0635   54.3206   14.2033 H       1  <0>         0.0618
     46 H12         7.4021   52.4655   18.0670 H       1  <0>         0.0624
     47 H13         5.8348   55.4710   14.3058 H       1  <0>         0.0632
     48 H14         0.8389   52.1684   21.9403 H       1  <0>         0.0651
     49 H15         6.4043   54.2956   19.8360 H       1  <0>         0.0643
     50 H16         4.2535   54.3124   24.9031 H       1  <0>         0.0663
     51 H17         2.0296   55.7283   28.1497 H       1  <0>         0.0339
     52 H18         2.8026   54.4692   29.2072 H       1  <0>         0.0339
     53 H19         0.1473   54.7531   29.1462 H       1  <0>         0.0815
     54 H20         0.2911   53.7668   27.6340 H       1  <0>         0.0815
     55 H21         3.5374   54.8671   26.5999 H       1  <0>         0.0567
     56 H22         3.6130   53.2630   27.3892 H       1  <0>         0.0567
     57 H23         0.9691   51.5450   17.0296 H       1  <0>         0.1581
     58 H24         1.1006   52.0795   28.7455 H       1  <0>         0.2028
     59 H25         0.2546   52.5101   25.4263 H       1  <0>         0.2174
@<TRIPOS>BOND
     1     1    28    1
     2     2    29    1
     3     3    29    1
     4     4     5   ar
     5     4     6   ar
     6     5     7   ar
     7     6    14   ar
     8     7    15   ar
     9     8    16   ar
    10     8    20   ar
    11     9    17   ar
    12     9    18   ar
    13    10    19   ar
    14    10    21   ar
    15    11    12    1
    16    11    13    1
    17    12    29    1
    18    13    33    1
    19    14    15   ar
    20    14    17    1
    21    15    34    1
    22    16    19   ar
    23    16    22    1
    24    17    23   ar
    25    18    22   ar
    26    18    28    1
    27    19    28    1
    28    20    21   ar
    29    20    30    1
    30    21    33    1
    31    22    24   ar
    32    23    24   ar
    33    23    25    1
    34    24    26    1
    35    25    27   am
    36    25    31    2
    37    26    27   am
    38    26    32    2
    39     1    35    1
    40     1    36    1
    41     1    37    1
    42     2    38    1
    43     2    39    1
    44     2    40    1
    45     3    41    1
    46     3    42    1
    47     3    43    1
    48     4    44    1
    49     5    45    1
    50     6    46    1
    51     7    47    1
    52     8    48    1
    53     9    49    1
    54    10    50    1
    55    11    51    1
    56    11    52    1
    57    12    53    1
    58    12    54    1
    59    13    55    1
    60    13    56    1
    61    27    57    1
    62    29    58    1
    63    30    59    1
@<TRIPOS>SUBSTRUCTURE
     1 <0>         1 TEMP              0 ****  ****    0 ROOT

