
##########                                Name:        61E_576_3BIZ
##########                    Molecular_Weight:             478.955
##########                DOCK_Rotatable_Bonds:                   7
##########                       Formal_Charge:              0.9999
##########                     HBond_Acceptors:                   8
##########                        HBond_Donors:                   3
##########                         Heavy_Atoms:                  34
##########                            HA_RMSDs:              10.462
##########                            HA_RMSDh:               8.598
##########                            HA_RMSDm:               6.561
##########                          Grid_Score:         -103.772263
##########                     Grid_vdw_energy:          -44.745777
##########                      Grid_es_energy:          -59.026482
##########           Internal_energy_repulsive:           12.107940

@<TRIPOS>MOLECULE
61E_576_3BIZ
 59 63 1 0 0
SMALL
USER_CHARGES


@<TRIPOS>ATOM
      1 C1          6.7659   55.1450   23.0293 C.3     1  <0>         0.0058
      2 C2          3.6121   52.2881   31.3205 C.3     1  <0>        -0.0433
      3 C3          1.2484   52.3118   31.7543 C.3     1  <0>        -0.0433
      4 C4          8.0472   53.5574   16.2506 C.ar    1  <0>        -0.0611
      5 C5          7.9264   54.7780   15.5440 C.ar    1  <0>        -0.0603
      6 C6          7.2508   53.2349   17.3749 C.ar    1  <0>        -0.0526
      7 C7          7.0444   55.7866   16.0042 C.ar    1  <0>        -0.0428
      8 C8          2.2635   52.9857   23.1576 C.ar    1  <0>        -0.0198
      9 C9          6.0161   54.3490   20.2288 C.ar    1  <0>        -0.0312
     10 C10         4.2326   54.2128   24.8058 C.ar    1  <0>        -0.0072
     11 C11         3.3231   54.1498   29.0754 C.3     1  <0>         0.0114
     12 C12         1.9990   53.5467   29.7083 C.3     1  <0>        -0.0303
     13 C13         3.7653   53.5182   27.7085 C.3     1  <0>         0.0591
     14 C14         6.3323   54.2261   17.8474 C.ar    1  <0>         0.0012
     15 C15         6.2840   55.5259   17.1941 C.ar    1  <0>         0.0487
     16 C16         3.4433   53.5170   22.5881 C.ar    1  <0>         0.0086
     17 C17         5.5212   53.9628   18.9838 C.ar    1  <0>        -0.0019
     18 C18         5.1852   54.1938   21.3623 C.ar    1  <0>         0.0429
     19 C19         4.4434   54.1085   23.4141 C.ar    1  <0>         0.0442
     20 C20         2.0040   53.1410   24.5530 C.ar    1  <0>         0.1031
     21 C21         3.0061   53.7288   25.3601 C.ar    1  <0>         0.1076
     22 C22         3.9249   53.5820   21.2891 C.ar    1  <0>         0.0182
     23 C23         4.2426   53.3317   18.8775 C.ar    1  <0>         0.0576
     24 C24         3.4291   53.1419   20.0196 C.ar    1  <0>         0.0593
     25 C25         3.4640   52.7616   17.7774 C.2     1  <0>         0.2518
     26 C26         2.2702   52.5044   19.5311 C.2     1  <0>         0.2519
     27 N1          2.2986   52.3093   18.1800 N.am    1  <0>        -0.2483
     28 N2          5.4615   54.4709   22.6221 N.pl3   1  <0>        -0.3021
     29 N3          2.2503   52.3760   30.6561 N.4     1  <0>         0.2310
     30 O1          0.9637   52.6883   25.0933 O.3     1  <0>        -0.3573
     31 O2          3.8091   52.7085   16.5992 O.2     1  <0>        -0.2697
     32 O3          1.2759   52.2305   20.1956 O.2     1  <0>        -0.2697
     33 O4          2.7049   53.8212   26.7073 O.3     1  <0>        -0.3419
     34 Cl1         5.2808   56.8670   17.6374 Cl      1  <0>        -0.0829
     35 H1          6.7848   55.2790   24.1210 H       1  <0>         0.0432
     36 H2          7.6148   54.5162   22.7226 H       1  <0>         0.0432
     37 H3          6.8402   56.1264   22.5382 H       1  <0>         0.0432
     38 H4          4.3987   52.3309   30.5527 H       1  <0>         0.0777
     39 H5          3.7346   53.1298   32.0180 H       1  <0>         0.0777
     40 H6          3.6899   51.3398   31.8725 H       1  <0>         0.0777
     41 H7          0.2350   52.3715   31.3307 H       1  <0>         0.0777
     42 H8          1.3625   51.3632   32.2994 H       1  <0>         0.0777
     43 H9          1.4071   53.1531   32.4449 H       1  <0>         0.0777
     44 H10         8.7811   52.8391   15.9162 H       1  <0>         0.0618
     45 H11         8.5095   54.9412   14.6497 H       1  <0>         0.0618
     46 H12         7.3331   52.2735   17.8601 H       1  <0>         0.0624
     47 H13         6.9469   56.7235   15.4759 H       1  <0>         0.0632
     48 H14         1.5553   52.4599   22.5344 H       1  <0>         0.0651
     49 H15         7.0112   54.7574   20.3251 H       1  <0>         0.0643
     50 H16         4.9863   54.6517   25.4427 H       1  <0>         0.0663
     51 H17         3.1496   55.2224   28.9039 H       1  <0>         0.0339
     52 H18         4.1387   53.9863   29.7952 H       1  <0>         0.0339
     53 H19         1.4977   54.3444   30.2761 H       1  <0>         0.0815
     54 H20         1.3596   53.1902   28.8872 H       1  <0>         0.0815
     55 H21         4.7243   53.9497   27.3856 H       1  <0>         0.0567
     56 H22         3.8836   52.4299   27.8160 H       1  <0>         0.0567
     57 H23         1.5802   51.9053   17.6138 H       1  <0>         0.1581
     58 H24         2.1821   51.6100   30.0170 H       1  <0>         0.2028
     59 H25         1.1546   52.4392   25.9899 H       1  <0>         0.2174
@<TRIPOS>BOND
     1     1    28    1
     2     2    29    1
     3     3    29    1
     4     4     5   ar
     5     4     6   ar
     6     5     7   ar
     7     6    14   ar
     8     7    15   ar
     9     8    16   ar
    10     8    20   ar
    11     9    17   ar
    12     9    18   ar
    13    10    19   ar
    14    10    21   ar
    15    11    12    1
    16    11    13    1
    17    12    29    1
    18    13    33    1
    19    14    15   ar
    20    14    17    1
    21    15    34    1
    22    16    19   ar
    23    16    22    1
    24    17    23   ar
    25    18    22   ar
    26    18    28    1
    27    19    28    1
    28    20    21   ar
    29    20    30    1
    30    21    33    1
    31    22    24   ar
    32    23    24   ar
    33    23    25    1
    34    24    26    1
    35    25    27   am
    36    25    31    2
    37    26    27   am
    38    26    32    2
    39     1    35    1
    40     1    36    1
    41     1    37    1
    42     2    38    1
    43     2    39    1
    44     2    40    1
    45     3    41    1
    46     3    42    1
    47     3    43    1
    48     4    44    1
    49     5    45    1
    50     6    46    1
    51     7    47    1
    52     8    48    1
    53     9    49    1
    54    10    50    1
    55    11    51    1
    56    11    52    1
    57    12    53    1
    58    12    54    1
    59    13    55    1
    60    13    56    1
    61    27    57    1
    62    29    58    1
    63    30    59    1
@<TRIPOS>SUBSTRUCTURE
     1 <0>         1 TEMP              0 ****  ****    0 ROOT

