
##########                                Name:        61E_576_3BIZ
##########                    Molecular_Weight:             478.955
##########                DOCK_Rotatable_Bonds:                   7
##########                       Formal_Charge:              0.9999
##########                     HBond_Acceptors:                   8
##########                        HBond_Donors:                   3
##########                         Heavy_Atoms:                  34
##########                            HA_RMSDs:              11.452
##########                            HA_RMSDh:              10.321
##########                            HA_RMSDm:               8.991
##########                          Grid_Score:          -94.700104
##########                     Grid_vdw_energy:          -38.785072
##########                      Grid_es_energy:          -55.915035
##########           Internal_energy_repulsive:           11.604563

@<TRIPOS>MOLECULE
61E_576_3BIZ
 59 63 1 0 0
SMALL
USER_CHARGES


@<TRIPOS>ATOM
      1 C1          1.5049   50.8388   23.1099 C.3     1  <0>         0.0058
      2 C2          3.7559   53.0013   29.4237 C.3     1  <0>        -0.0433
      3 C3          3.7176   52.1371   31.6658 C.3     1  <0>        -0.0433
      4 C4         -0.3564   46.0606   18.2134 C.ar    1  <0>        -0.0611
      5 C5         -0.7529   46.8215   17.0875 C.ar    1  <0>        -0.0603
      6 C6         -0.5779   46.4820   19.5459 C.ar    1  <0>        -0.0526
      7 C7         -1.3183   48.1092   17.2576 C.ar    1  <0>        -0.0428
      8 C8         -2.4871   50.0730   26.0132 C.ar    1  <0>        -0.0198
      9 C9         -0.4050   49.0406   21.6408 C.ar    1  <0>        -0.0312
     10 C10         0.0107   51.4334   25.9129 C.ar    1  <0>        -0.0072
     11 C11         0.9556   53.6882   29.5830 C.3     1  <0>         0.0114
     12 C12         1.4848   52.6355   30.6457 C.3     1  <0>        -0.0303
     13 C13         0.7273   53.1278   28.1350 C.3     1  <0>         0.0591
     14 C14        -1.1709   47.7692   19.7481 C.ar    1  <0>         0.0012
     15 C15        -1.4772   48.6046   18.5961 C.ar    1  <0>         0.0487
     16 C16        -1.6773   49.9980   24.8568 C.ar    1  <0>         0.0086
     17 C17        -1.3991   48.2505   21.0653 C.ar    1  <0>        -0.0019
     18 C18        -0.6518   49.6178   22.9079 C.ar    1  <0>         0.0429
     19 C19        -0.4137   50.6565   24.8136 C.ar    1  <0>         0.0442
     20 C20        -2.1046   50.9065   27.1075 C.ar    1  <0>         0.1031
     21 C21        -0.8475   51.5527   27.0509 C.ar    1  <0>         0.1076
     22 C22        -1.8173   49.3471   23.6402 C.ar    1  <0>         0.0182
     23 C23        -2.5957   47.9520   21.7888 C.ar    1  <0>         0.0576
     24 C24        -2.8231   48.4996   23.0736 C.ar    1  <0>         0.0593
     25 C25        -3.7812   47.1353   21.5261 C.2     1  <0>         0.2518
     26 C26        -4.0808   47.9927   23.4605 C.2     1  <0>         0.2519
     27 N1         -4.6513   47.1983   22.5079 N.am    1  <0>        -0.2483
     28 N2          0.1523   50.3712   23.6332 N.pl3   1  <0>        -0.3021
     29 N3          2.9271   52.1947   30.4065 N.4     1  <0>         0.2310
     30 O1         -2.8018   51.0038   28.1485 O.3     1  <0>        -0.3573
     31 O2         -3.9907   46.4698   20.5146 O.2     1  <0>        -0.2697
     32 O3         -4.6813   48.2900   24.4883 O.2     1  <0>        -0.2697
     33 O4         -0.5239   52.3197   28.1560 O.3     1  <0>        -0.3419
     34 Cl1        -2.1518   50.1999   18.6285 Cl      1  <0>        -0.0829
     35 H1          2.0033   51.4509   23.8760 H       1  <0>         0.0432
     36 H2          2.1296   49.9642   22.8760 H       1  <0>         0.0432
     37 H3          1.3582   51.4387   22.1997 H       1  <0>         0.0432
     38 H4          3.2186   53.0784   28.4669 H       1  <0>         0.0777
     39 H5          3.9278   54.0091   29.8297 H       1  <0>         0.0777
     40 H6          4.7222   52.5011   29.2621 H       1  <0>         0.0777
     41 H7          3.1633   51.5608   32.4212 H       1  <0>         0.0777
     42 H8          4.6842   51.6501   31.4699 H       1  <0>         0.0777
     43 H9          3.8898   53.1580   32.0375 H       1  <0>         0.0777
     44 H10         0.1380   45.1148   18.0477 H       1  <0>         0.0618
     45 H11        -0.6237   46.4183   16.0940 H       1  <0>         0.0618
     46 H12        -0.3088   45.8537   20.3822 H       1  <0>         0.0624
     47 H13        -1.6207   48.7008   16.4061 H       1  <0>         0.0632
     48 H14        -3.3992   49.4973   26.0691 H       1  <0>         0.0651
     49 H15         0.5321   49.2081   21.1307 H       1  <0>         0.0643
     50 H16         0.9693   51.9305   25.8950 H       1  <0>         0.0663
     51 H17        -0.0100   54.0694   29.9467 H       1  <0>         0.0339
     52 H18         1.7028   54.4925   29.5129 H       1  <0>         0.0339
     53 H19         1.4299   53.0987   31.6419 H       1  <0>         0.0815
     54 H20         0.8421   51.7443   30.5930 H       1  <0>         0.0815
     55 H21         0.6290   53.9577   27.4198 H       1  <0>         0.0567
     56 H22         1.5783   52.4988   27.8348 H       1  <0>         0.0567
     57 H23        -5.5470   46.7556   22.5492 H       1  <0>         0.1581
     58 H24         2.7743   51.2952   29.9974 H       1  <0>         0.2028
     59 H25        -2.5824   51.8086   28.6031 H       1  <0>         0.2174
@<TRIPOS>BOND
     1     1    28    1
     2     2    29    1
     3     3    29    1
     4     4     5   ar
     5     4     6   ar
     6     5     7   ar
     7     6    14   ar
     8     7    15   ar
     9     8    16   ar
    10     8    20   ar
    11     9    17   ar
    12     9    18   ar
    13    10    19   ar
    14    10    21   ar
    15    11    12    1
    16    11    13    1
    17    12    29    1
    18    13    33    1
    19    14    15   ar
    20    14    17    1
    21    15    34    1
    22    16    19   ar
    23    16    22    1
    24    17    23   ar
    25    18    22   ar
    26    18    28    1
    27    19    28    1
    28    20    21   ar
    29    20    30    1
    30    21    33    1
    31    22    24   ar
    32    23    24   ar
    33    23    25    1
    34    24    26    1
    35    25    27   am
    36    25    31    2
    37    26    27   am
    38    26    32    2
    39     1    35    1
    40     1    36    1
    41     1    37    1
    42     2    38    1
    43     2    39    1
    44     2    40    1
    45     3    41    1
    46     3    42    1
    47     3    43    1
    48     4    44    1
    49     5    45    1
    50     6    46    1
    51     7    47    1
    52     8    48    1
    53     9    49    1
    54    10    50    1
    55    11    51    1
    56    11    52    1
    57    12    53    1
    58    12    54    1
    59    13    55    1
    60    13    56    1
    61    27    57    1
    62    29    58    1
    63    30    59    1
@<TRIPOS>SUBSTRUCTURE
     1 <0>         1 TEMP              0 ****  ****    0 ROOT

