
##########                                Name:               *****
##########                    Molecular_Weight:             299.305
##########                DOCK_Rotatable_Bonds:                   4
##########                       Formal_Charge:                   0
##########                     HBond_Acceptors:                   6
##########                        HBond_Donors:                   4
##########                         Heavy_Atoms:                  22
##########                            HA_RMSDs:               0.365
##########                            HA_RMSDh:               0.365
##########                            HA_RMSDm:               0.365
##########                          Grid_Score:          -40.039524
##########                     Grid_vdw_energy:          -38.088882
##########                      Grid_es_energy:           -1.950643
##########           Internal_energy_repulsive:            7.477068

@<TRIPOS>MOLECULE
*****
 36 38 1 0 0
SMALL
USER_CHARGES


@<TRIPOS>ATOM
      1 C1         35.5709   -0.2050  -28.0533 C.3     1  <0>        -0.0372
      2 C2         30.4890   -0.6762  -27.2267 C.3     1  <0>        -0.0258
      3 C3         36.6103   -7.9899  -29.3582 C.ar    1  <0>        -0.0247
      4 C4         35.2126   -8.0279  -29.0970 C.ar    1  <0>        -0.0372
      5 C5         36.6684   -5.5315  -29.0026 C.ar    1  <0>        -0.0168
      6 C6         34.5724   -3.2414  -28.2740 C.2     1  <0>        -0.0275
      7 C7         34.1798   -0.7366  -27.8748 C.2     1  <0>        -0.0158
      8 C8         31.9422   -0.8488  -27.4987 C.2     1  <0>         0.0175
      9 C9         37.3217   -6.7542  -29.3094 C.ar    1  <0>         0.1241
     10 C10        34.5752   -6.8135  -28.7959 C.ar    1  <0>         0.0417
     11 C11        35.2696   -5.5733  -28.7436 C.ar    1  <0>         0.0111
     12 C12        33.7923   -2.0749  -27.9784 C.2     1  <0>         0.0356
     13 C13        32.9990    0.0491  -27.5714 C.2     1  <0>         0.0578
     14 C14        34.2485   -4.5481  -28.4010 C.2     1  <0>         0.0478
     15 C15        32.9343   -5.2876  -28.2622 C.2     1  <0>         0.2490
     16 C16        32.9367    1.5127  -27.3809 C.2     1  <0>         0.2433
     17 N1         33.6590    2.0011  -26.3061 N.am    1  <0>        -0.3253
     18 N2         32.4393   -2.1067  -27.7425 N.pl3   1  <0>        -0.3172
     19 N3         33.2240   -6.6286  -28.5135 N.am    1  <0>        -0.2809
     20 O1         31.8493   -4.8163  -27.9909 O.2     1  <0>        -0.2698
     21 O2         32.2758    2.2319  -28.1366 O.2     1  <0>        -0.2704
     22 F1         38.6405   -6.7520  -29.5575 F       1  <0>        -0.2055
     23 H1         35.7325    0.0526  -29.1107 H       1  <0>         0.0278
     24 H2         35.7021    0.6935  -27.4324 H       1  <0>         0.0278
     25 H3         36.2984   -0.9711  -27.7471 H       1  <0>         0.0278
     26 H4         29.9555   -0.5072  -28.1737 H       1  <0>         0.0290
     27 H5         30.0963   -1.5821  -26.7419 H       1  <0>         0.0290
     28 H6         30.3403    0.1882  -26.5637 H       1  <0>         0.0290
     29 H7         37.1364   -8.9023  -29.5947 H       1  <0>         0.0647
     30 H8         34.6621   -8.9565  -29.1287 H       1  <0>         0.0637
     31 H9         37.2148   -4.6009  -28.9669 H       1  <0>         0.0653
     32 H10        35.6221   -3.0369  -28.4243 H       1  <0>         0.0644
     33 H11        33.6621    2.9817  -26.1096 H       1  <0>         0.1453
     34 H12        34.1776    1.3733  -25.7259 H       1  <0>         0.1453
     35 H13        31.8862   -2.9397  -27.7471 H       1  <0>         0.1519
     36 H14        32.5467   -7.3643  -28.4939 H       1  <0>         0.1552
@<TRIPOS>BOND
     1     9    22    1
     2     3    29    1
     3     3     9   ar
     4     5     9   ar
     5     3     4   ar
     6     1    23    1
     7     5    31    1
     8     5    11   ar
     9     4    30    1
    10     4    10   ar
    11    10    11   ar
    12    11    14    1
    13    10    19    1
    14     6    32    1
    15    19    36    1
    16    15    19   am
    17     6    14    2
    18    14    15    1
    19     6    12    1
    20     2    26    1
    21     1     7    1
    22     1    25    1
    23     1    24    1
    24    15    20    2
    25    16    21    2
    26     7    12    2
    27    12    18    1
    28     7    13    1
    29    18    35    1
    30     8    18    1
    31     8    13    2
    32    13    16    1
    33     2     8    1
    34    16    17   am
    35     2    27    1
    36     2    28    1
    37    17    33    1
    38    17    34    1
@<TRIPOS>SUBSTRUCTURE
     1 <0>         1 TEMP              0 ****  ****    0 ROOT

