
##########                                Name:               *****
##########                    Molecular_Weight:             299.305
##########                DOCK_Rotatable_Bonds:                   4
##########                       Formal_Charge:                   0
##########                     HBond_Acceptors:                   6
##########                        HBond_Donors:                   4
##########                         Heavy_Atoms:                  22
##########                            HA_RMSDs:               1.169
##########                            HA_RMSDh:               1.169
##########                            HA_RMSDm:               1.104
##########                          Grid_Score:          -41.353241
##########                     Grid_vdw_energy:          -39.439762
##########                      Grid_es_energy:           -1.913479
##########           Internal_energy_repulsive:            7.865619

@<TRIPOS>MOLECULE
*****
 36 38 1 0 0
SMALL
USER_CHARGES


@<TRIPOS>ATOM
      1 C1         35.9051   -0.2193  -26.9727 C.3     1  <0>        -0.0372
      2 C2         30.7947    0.4039  -27.4469 C.3     1  <0>        -0.0258
      3 C3         35.7667   -7.8386  -29.2107 C.ar    1  <0>        -0.0247
      4 C4         34.4232   -7.7060  -28.7627 C.ar    1  <0>        -0.0372
      5 C5         36.1501   -5.3959  -28.9656 C.ar    1  <0>        -0.0168
      6 C6         34.4466   -2.8588  -28.0549 C.2     1  <0>        -0.0275
      7 C7         34.4428   -0.4272  -27.2335 C.2     1  <0>        -0.0158
      8 C8         32.2073   -0.0634  -27.4104 C.2     1  <0>         0.0175
      9 C9         36.6127   -6.6939  -29.3079 C.ar    1  <0>         0.1241
     10 C10        33.9746   -6.4183  -28.4279 C.ar    1  <0>         0.0417
     11 C11        34.8048   -5.2672  -28.5195 C.ar    1  <0>         0.0111
     12 C12        33.8513   -1.6020  -27.7044 C.2     1  <0>         0.0356
     13 C13        33.3950    0.5583  -27.0478 C.2     1  <0>         0.0578
     14 C14        33.9630   -4.1213  -28.0844 C.2     1  <0>         0.0478
     15 C15        32.6057   -4.6980  -27.7405 C.2     1  <0>         0.2490
     16 C16        33.5621    1.9462  -26.5704 C.2     1  <0>         0.2433
     17 N1         34.3449    2.0927  -25.4384 N.am    1  <0>        -0.3253
     18 N2         32.5041   -1.3488  -27.7957 N.pl3   1  <0>        -0.3172
     19 N3         32.7049   -6.0694  -27.9742 N.am    1  <0>        -0.2809
     20 O1         31.6287   -4.0963  -27.3450 O.2     1  <0>        -0.2698
     21 O2         33.0276    2.8952  -27.1524 O.2     1  <0>        -0.2704
     22 F1         37.8764   -6.8524  -29.7308 F       1  <0>        -0.2055
     23 H1         36.3911    0.1556  -27.8859 H       1  <0>         0.0278
     24 H2         36.0322    0.5134  -26.1621 H       1  <0>         0.0278
     25 H3         36.3647   -1.1744  -26.6784 H       1  <0>         0.0278
     26 H4         30.5777    0.8413  -28.4327 H       1  <0>         0.0290
     27 H5         30.1217   -0.4477  -27.2683 H       1  <0>         0.0290
     28 H6         30.6395    1.1636  -26.6674 H       1  <0>         0.0290
     29 H7         36.1489   -8.8118  -29.4788 H       1  <0>         0.0647
     30 H8         33.7725   -8.5642  -28.6827 H       1  <0>         0.0637
     31 H9         36.7976   -4.5352  -29.0413 H       1  <0>         0.0653
     32 H10        35.4817   -2.7825  -28.3530 H       1  <0>         0.0644
     33 H11        34.5006    3.0019  -25.0521 H       1  <0>         0.1453
     34 H12        34.7545    1.2893  -25.0067 H       1  <0>         0.1453
     35 H13        31.8253   -2.0155  -28.1031 H       1  <0>         0.1519
     36 H14        31.9582   -6.7200  -27.8340 H       1  <0>         0.1552
@<TRIPOS>BOND
     1     9    22    1
     2     3    29    1
     3     3     9   ar
     4     5     9   ar
     5     3     4   ar
     6     1    23    1
     7     5    31    1
     8     5    11   ar
     9     4    30    1
    10     4    10   ar
    11    10    11   ar
    12    11    14    1
    13    10    19    1
    14     6    32    1
    15    19    36    1
    16    15    19   am
    17     6    14    2
    18    14    15    1
    19     6    12    1
    20     2    26    1
    21     1     7    1
    22     1    25    1
    23     1    24    1
    24    15    20    2
    25    16    21    2
    26     7    12    2
    27    12    18    1
    28     7    13    1
    29    18    35    1
    30     8    18    1
    31     8    13    2
    32    13    16    1
    33     2     8    1
    34    16    17   am
    35     2    27    1
    36     2    28    1
    37    17    33    1
    38    17    34    1
@<TRIPOS>SUBSTRUCTURE
     1 <0>         1 TEMP              0 ****  ****    0 ROOT

