
##########                                Name:               *****
##########                    Molecular_Weight:             299.305
##########                DOCK_Rotatable_Bonds:                   4
##########                       Formal_Charge:                   0
##########                     HBond_Acceptors:                   6
##########                        HBond_Donors:                   4
##########                         Heavy_Atoms:                  22
##########                            HA_RMSDs:               1.239
##########                            HA_RMSDh:               1.239
##########                            HA_RMSDm:               1.121
##########                          Grid_Score:          -41.105061
##########                     Grid_vdw_energy:          -39.634094
##########                      Grid_es_energy:           -1.470966
##########           Internal_energy_repulsive:            7.187591

@<TRIPOS>MOLECULE
*****
 36 38 1 0 0
SMALL
USER_CHARGES


@<TRIPOS>ATOM
      1 C1         35.6352    0.0284  -27.3777 C.3     1  <0>        -0.0372
      2 C2         30.4865    0.4804  -27.5027 C.3     1  <0>        -0.0258
      3 C3         35.5487   -7.7532  -29.0035 C.ar    1  <0>        -0.0247
      4 C4         34.2072   -7.6105  -28.5525 C.ar    1  <0>        -0.0372
      5 C5         35.9071   -5.2969  -28.8952 C.ar    1  <0>        -0.0168
      6 C6         34.1828   -2.7319  -28.1106 C.2     1  <0>        -0.0275
      7 C7         34.1646   -0.2379  -27.5043 C.2     1  <0>        -0.0158
      8 C8         31.9119    0.0533  -27.5366 C.2     1  <0>         0.0175
      9 C9         36.3813   -6.6068  -29.1699 C.ar    1  <0>         0.1241
     10 C10        33.7470   -6.3112  -28.2848 C.ar    1  <0>         0.0417
     11 C11        34.5639   -5.1581  -28.4458 C.ar    1  <0>         0.0111
     12 C12        33.5765   -1.4641  -27.8244 C.2     1  <0>         0.0356
     13 C13        33.1034    0.7339  -27.3231 C.2     1  <0>         0.0578
     14 C14        33.7129   -3.9991  -28.0671 C.2     1  <0>         0.0478
     15 C15        32.3647   -4.5703  -27.6812 C.2     1  <0>         0.2490
     16 C16        33.2623    2.1623  -26.9817 C.2     1  <0>         0.2433
     17 N1         34.0215    2.4205  -25.8536 N.am    1  <0>        -0.3253
     18 N2         32.2190   -1.2534  -27.8315 N.pl3   1  <0>        -0.3172
     19 N3         32.4771   -5.9514  -27.8404 N.am    1  <0>        -0.2809
     20 O1         31.3841   -3.9582  -27.3112 O.2     1  <0>        -0.2698
     21 O2         32.7414    3.0487  -27.6658 O.2     1  <0>        -0.2704
     22 F1         37.6434   -6.7748  -29.5939 F       1  <0>        -0.2055
     23 H1         36.0386    0.3329  -28.3551 H       1  <0>         0.0278
     24 H2         35.8002    0.8328  -26.6458 H       1  <0>         0.0278
     25 H3         36.1457   -0.8853  -27.0389 H       1  <0>         0.0278
     26 H4         30.1817    0.8233  -28.5026 H       1  <0>         0.0290
     27 H5         29.8562   -0.3685  -27.1991 H       1  <0>         0.0290
     28 H6         30.3669    1.3020  -26.7819 H       1  <0>         0.0290
     29 H7         35.9394   -8.7356  -29.2211 H       1  <0>         0.0647
     30 H8         33.5665   -8.4698  -28.4203 H       1  <0>         0.0637
     31 H9         36.5446   -4.4348  -29.0231 H       1  <0>         0.0653
     32 H10        35.2148   -2.6611  -28.4208 H       1  <0>         0.0644
     33 H11        34.1703    3.3636  -25.5559 H       1  <0>         0.1453
     34 H12        34.4209    1.6640  -25.3362 H       1  <0>         0.1453
     35 H13        31.5402   -1.9613  -28.0262 H       1  <0>         0.1519
     36 H14        31.7387   -6.6011  -27.6589 H       1  <0>         0.1552
@<TRIPOS>BOND
     1     9    22    1
     2     3    29    1
     3     3     9   ar
     4     5     9   ar
     5     3     4   ar
     6     1    23    1
     7     5    31    1
     8     5    11   ar
     9     4    30    1
    10     4    10   ar
    11    10    11   ar
    12    11    14    1
    13    10    19    1
    14     6    32    1
    15    19    36    1
    16    15    19   am
    17     6    14    2
    18    14    15    1
    19     6    12    1
    20     2    26    1
    21     1     7    1
    22     1    25    1
    23     1    24    1
    24    15    20    2
    25    16    21    2
    26     7    12    2
    27    12    18    1
    28     7    13    1
    29    18    35    1
    30     8    18    1
    31     8    13    2
    32    13    16    1
    33     2     8    1
    34    16    17   am
    35     2    27    1
    36     2    28    1
    37    17    33    1
    38    17    34    1
@<TRIPOS>SUBSTRUCTURE
     1 <0>         1 TEMP              0 ****  ****    0 ROOT

