
##########                                Name:               *****
##########                    Molecular_Weight:             299.305
##########                DOCK_Rotatable_Bonds:                   4
##########                       Formal_Charge:                   0
##########                     HBond_Acceptors:                   6
##########                        HBond_Donors:                   4
##########                         Heavy_Atoms:                  22
##########                            HA_RMSDs:               1.296
##########                            HA_RMSDh:               1.296
##########                            HA_RMSDm:               1.165
##########                          Grid_Score:          -41.832588
##########                     Grid_vdw_energy:          -40.368385
##########                      Grid_es_energy:           -1.464204
##########           Internal_energy_repulsive:            7.079731

@<TRIPOS>MOLECULE
*****
 36 38 1 0 0
SMALL
USER_CHARGES


@<TRIPOS>ATOM
      1 C1         35.7759   -0.0129  -27.4121 C.3     1  <0>        -0.0372
      2 C2         30.6388    0.5664  -27.3513 C.3     1  <0>        -0.0258
      3 C3         35.4176   -7.7767  -29.1197 C.ar    1  <0>        -0.0247
      4 C4         34.0605   -7.5891  -28.7374 C.ar    1  <0>        -0.0372
      5 C5         35.8793   -5.3465  -28.8868 C.ar    1  <0>        -0.0168
      6 C6         34.2302   -2.7365  -28.0888 C.2     1  <0>        -0.0275
      7 C7         34.2956   -0.2427  -27.4851 C.2     1  <0>        -0.0158
      8 C8         32.0510    0.1041  -27.4362 C.2     1  <0>         0.0175
      9 C9         36.3090   -6.6651  -29.1909 C.ar    1  <0>         0.1241
     10 C10        33.6447   -6.2813  -28.4400 C.ar    1  <0>         0.0417
     11 C11        34.5204   -5.1626  -28.5063 C.ar    1  <0>         0.0111
     12 C12        33.6661   -1.4540  -27.7823 C.2     1  <0>         0.0356
     13 C13        33.2659    0.7551  -27.2667 C.2     1  <0>         0.0578
     14 C14        33.7021   -3.9808  -28.1256 C.2     1  <0>         0.0478
     15 C15        32.3098   -4.5028  -27.8391 C.2     1  <0>         0.2490
     16 C16        33.4724    2.1792  -26.9329 C.2     1  <0>         0.2433
     17 N1         34.1905    2.4176  -25.7740 N.am    1  <0>        -0.3253
     18 N2         32.3149   -1.2098  -27.7406 N.pl3   1  <0>        -0.3172
     19 N3         32.3690   -5.8801  -28.0510 N.am    1  <0>        -0.2809
     20 O1         31.3383   -3.8604  -27.4977 O.2     1  <0>        -0.2698
     21 O2         33.0226    3.0792  -27.6490 O.2     1  <0>        -0.2704
     22 F1         37.5844   -6.8754  -29.5517 F       1  <0>        -0.2055
     23 H1         36.1511    0.2814  -28.4038 H       1  <0>         0.0278
     24 H2         35.9871    0.7874  -26.6875 H       1  <0>         0.0278
     25 H3         36.2755   -0.9388  -27.0909 H       1  <0>         0.0278
     26 H4         30.3066    0.9165  -28.3398 H       1  <0>         0.0290
     27 H5         29.9991   -0.2666  -27.0241 H       1  <0>         0.0290
     28 H6         30.5657    1.3909  -26.6275 H       1  <0>         0.0290
     29 H7         35.7756   -8.7669  -29.3575 H       1  <0>         0.0647
     30 H8         33.3754   -8.4218  -28.6776 H       1  <0>         0.0637
     31 H9         36.5611   -4.5110  -28.9424 H       1  <0>         0.0653
     32 H10        35.2803   -2.7021  -28.3386 H       1  <0>         0.0644
     33 H11        34.3673    3.3568  -25.4793 H       1  <0>         0.1453
     34 H12        34.5322    1.6507  -25.2312 H       1  <0>         0.1453
     35 H13        31.6122   -1.9008  -27.9098 H       1  <0>         0.1519
     36 H14        31.5930   -6.5010  -27.9383 H       1  <0>         0.1552
@<TRIPOS>BOND
     1     9    22    1
     2     3    29    1
     3     3     9   ar
     4     5     9   ar
     5     3     4   ar
     6     1    23    1
     7     5    31    1
     8     5    11   ar
     9     4    30    1
    10     4    10   ar
    11    10    11   ar
    12    11    14    1
    13    10    19    1
    14     6    32    1
    15    19    36    1
    16    15    19   am
    17     6    14    2
    18    14    15    1
    19     6    12    1
    20     2    26    1
    21     1     7    1
    22     1    25    1
    23     1    24    1
    24    15    20    2
    25    16    21    2
    26     7    12    2
    27    12    18    1
    28     7    13    1
    29    18    35    1
    30     8    18    1
    31     8    13    2
    32    13    16    1
    33     2     8    1
    34    16    17   am
    35     2    27    1
    36     2    28    1
    37    17    33    1
    38    17    34    1
@<TRIPOS>SUBSTRUCTURE
     1 <0>         1 TEMP              0 ****  ****    0 ROOT

