
##########                                Name:               *****
##########                    Molecular_Weight:             299.305
##########                DOCK_Rotatable_Bonds:                   4
##########                       Formal_Charge:                   0
##########                     HBond_Acceptors:                   6
##########                        HBond_Donors:                   4
##########                         Heavy_Atoms:                  22
##########                            HA_RMSDs:               2.166
##########                            HA_RMSDh:               2.166
##########                            HA_RMSDm:               1.809
##########                          Grid_Score:          -40.721588
##########                     Grid_vdw_energy:          -39.305939
##########                      Grid_es_energy:           -1.415648
##########           Internal_energy_repulsive:            7.567039

@<TRIPOS>MOLECULE
*****
 36 38 1 0 0
SMALL
USER_CHARGES


@<TRIPOS>ATOM
      1 C1         35.9426    0.4653  -26.9747 C.3     1  <0>        -0.0372
      2 C2         30.9056    1.6252  -27.0856 C.3     1  <0>        -0.0258
      3 C3         34.7820   -7.1804  -28.8339 C.ar    1  <0>        -0.0247
      4 C4         33.4571   -6.8581  -28.4293 C.ar    1  <0>        -0.0372
      5 C5         35.4903   -4.8099  -28.6043 C.ar    1  <0>        -0.0168
      6 C6         34.1260   -2.0496  -27.7750 C.2     1  <0>        -0.0275
      7 C7         34.4497    0.4073  -27.1071 C.2     1  <0>        -0.0158
      8 C8         32.2586    1.0068  -27.1309 C.2     1  <0>         0.0175
      9 C9         35.7798   -6.1642  -28.9176 C.ar    1  <0>         0.1241
     10 C10        33.1801   -5.5161  -28.1228 C.ar    1  <0>         0.0417
     11 C11        34.1631   -4.4912  -28.2015 C.ar    1  <0>         0.0111
     12 C12        33.6992   -0.7179  -27.4571 C.2     1  <0>         0.0356
     13 C13        33.5319    1.5113  -26.9012 C.2     1  <0>         0.0578
     14 C14        33.4745   -3.2342  -27.8054 C.2     1  <0>         0.0478
     15 C15        32.0414   -3.6140  -27.4973 C.2     1  <0>         0.2490
     16 C16        33.8851    2.8954  -26.5246 C.2     1  <0>         0.2433
     17 N1         34.6866    3.0175  -25.4028 N.am    1  <0>        -0.3253
     18 N2         32.3837   -0.3221  -27.4583 N.pl3   1  <0>        -0.3172
     19 N3         31.9578   -4.9895  -27.7125 N.am    1  <0>        -0.2809
     20 O1         31.1453   -2.8781  -27.1390 O.2     1  <0>        -0.2698
     21 O2         33.4786    3.8626  -27.1759 O.2     1  <0>        -0.2704
     22 F1         37.0215   -6.5008  -29.2995 F       1  <0>        -0.2055
     23 H1         36.3869    0.7354  -27.9445 H       1  <0>         0.0278
     24 H2         36.2147    1.2211  -26.2232 H       1  <0>         0.0278
     25 H3         36.3214   -0.5180  -26.6590 H       1  <0>         0.0278
     26 H4         30.6538    2.0314  -28.0764 H       1  <0>         0.0290
     27 H5         30.1635    0.8640  -26.8028 H       1  <0>         0.0290
     28 H6         30.8983    2.4375  -26.3446 H       1  <0>         0.0290
     29 H7         35.0344   -8.2008  -29.0792 H       1  <0>         0.0647
     30 H8         32.6924   -7.6177  -28.3598 H       1  <0>         0.0637
     31 H9         36.2520   -4.0474  -28.6695 H       1  <0>         0.0653
     32 H10        35.1701   -2.1205  -28.0418 H       1  <0>         0.0644
     33 H11        34.9643    3.9234  -25.0826 H       1  <0>         0.1453
     34 H12        34.9878    2.1999  -24.9125 H       1  <0>         0.1453
     35 H13        31.6144   -0.9247  -27.6701 H       1  <0>         0.1519
     36 H14        31.1250   -5.5294  -27.5883 H       1  <0>         0.1552
@<TRIPOS>BOND
     1     9    22    1
     2     3    29    1
     3     3     9   ar
     4     5     9   ar
     5     3     4   ar
     6     1    23    1
     7     5    31    1
     8     5    11   ar
     9     4    30    1
    10     4    10   ar
    11    10    11   ar
    12    11    14    1
    13    10    19    1
    14     6    32    1
    15    19    36    1
    16    15    19   am
    17     6    14    2
    18    14    15    1
    19     6    12    1
    20     2    26    1
    21     1     7    1
    22     1    25    1
    23     1    24    1
    24    15    20    2
    25    16    21    2
    26     7    12    2
    27    12    18    1
    28     7    13    1
    29    18    35    1
    30     8    18    1
    31     8    13    2
    32    13    16    1
    33     2     8    1
    34    16    17   am
    35     2    27    1
    36     2    28    1
    37    17    33    1
    38    17    34    1
@<TRIPOS>SUBSTRUCTURE
     1 <0>         1 TEMP              0 ****  ****    0 ROOT

