
##########                                Name:               *****
##########                    Molecular_Weight:             299.305
##########                DOCK_Rotatable_Bonds:                   4
##########                       Formal_Charge:                   0
##########                     HBond_Acceptors:                   6
##########                        HBond_Donors:                   4
##########                         Heavy_Atoms:                  22
##########                            HA_RMSDs:               2.068
##########                            HA_RMSDh:               2.068
##########                            HA_RMSDm:               1.760
##########                          Grid_Score:          -40.399162
##########                     Grid_vdw_energy:          -39.340351
##########                      Grid_es_energy:           -1.058810
##########           Internal_energy_repulsive:            5.816417

@<TRIPOS>MOLECULE
*****
 36 38 1 0 0
SMALL
USER_CHARGES


@<TRIPOS>ATOM
      1 C1         36.0349    0.0750  -26.8768 C.3     1  <0>        -0.0372
      2 C2         31.0858    1.5023  -27.3222 C.3     1  <0>        -0.0258
      3 C3         34.5949   -7.5164  -28.7457 C.ar    1  <0>        -0.0247
      4 C4         33.2779   -7.1301  -28.3722 C.ar    1  <0>        -0.0372
      5 C5         35.4008   -5.1747  -28.5443 C.ar    1  <0>        -0.0168
      6 C6         34.1422   -2.3436  -27.7899 C.2     1  <0>        -0.0275
      7 C7         34.5530    0.0963  -27.1072 C.2     1  <0>        -0.0158
      8 C8         32.4037    0.8121  -27.2768 C.2     1  <0>         0.0175
      9 C9         35.6371   -6.5457  -28.8282 C.ar    1  <0>         0.1241
     10 C10        33.0538   -5.7721  -28.0947 C.ar    1  <0>         0.0417
     11 C11        34.0815   -4.7919  -28.1725 C.ar    1  <0>         0.0111
     12 C12        33.7677   -0.9891  -27.5037 C.2     1  <0>         0.0356
     13 C13        33.6844    1.2490  -26.9646 C.2     1  <0>         0.0578
     14 C14        33.4408   -3.4994  -27.8119 C.2     1  <0>         0.0478
     15 C15        31.9872   -3.8117  -27.5245 C.2     1  <0>         0.2490
     16 C16        34.0860    2.6142  -26.5685 C.2     1  <0>         0.2433
     17 N1         34.5353    2.7447  -25.2659 N.am    1  <0>        -0.3253
     18 N2         32.4783   -0.5235  -27.5924 N.pl3   1  <0>        -0.3172
     19 N3         31.8481   -5.1860  -27.7171 N.am    1  <0>        -0.2809
     20 O1         31.1173   -3.0314  -27.1964 O.2     1  <0>        -0.2698
     21 O2         34.0131    3.5606  -27.3585 O.2     1  <0>        -0.2704
     22 F1         36.8698   -6.9423  -29.1803 F       1  <0>        -0.2055
     23 H1         36.5559    0.3154  -27.8157 H       1  <0>         0.0278
     24 H2         36.2973    0.8193  -26.1105 H       1  <0>         0.0278
     25 H3         36.3386   -0.9254  -26.5346 H       1  <0>         0.0278
     26 H4         30.9219    1.9157  -28.3283 H       1  <0>         0.0290
     27 H5         30.2868    0.7835  -27.0873 H       1  <0>         0.0290
     28 H6         31.0734    2.3179  -26.5850 H       1  <0>         0.0290
     29 H7         34.8073   -8.5511  -28.9682 H       1  <0>         0.0647
     30 H8         32.4800   -7.8547  -28.3040 H       1  <0>         0.0637
     31 H9         36.1958   -4.4468  -28.6083 H       1  <0>         0.0653
     32 H10        35.1869   -2.4641  -28.0353 H       1  <0>         0.0644
     33 H11        34.8208    3.6395  -24.9225 H       1  <0>         0.1453
     34 H12        34.5742    1.9442  -24.6682 H       1  <0>         0.1453
     35 H13        31.6934   -1.0852  -27.8533 H       1  <0>         0.1519
     36 H14        30.9906   -5.6872  -27.5993 H       1  <0>         0.1552
@<TRIPOS>BOND
     1     9    22    1
     2     3    29    1
     3     3     9   ar
     4     5     9   ar
     5     3     4   ar
     6     1    23    1
     7     5    31    1
     8     5    11   ar
     9     4    30    1
    10     4    10   ar
    11    10    11   ar
    12    11    14    1
    13    10    19    1
    14     6    32    1
    15    19    36    1
    16    15    19   am
    17     6    14    2
    18    14    15    1
    19     6    12    1
    20     2    26    1
    21     1     7    1
    22     1    25    1
    23     1    24    1
    24    15    20    2
    25    16    21    2
    26     7    12    2
    27    12    18    1
    28     7    13    1
    29    18    35    1
    30     8    18    1
    31     8    13    2
    32    13    16    1
    33     2     8    1
    34    16    17   am
    35     2    27    1
    36     2    28    1
    37    17    33    1
    38    17    34    1
@<TRIPOS>SUBSTRUCTURE
     1 <0>         1 TEMP              0 ****  ****    0 ROOT

