
##########                                Name:               *****
##########                    Molecular_Weight:             299.305
##########                DOCK_Rotatable_Bonds:                   4
##########                       Formal_Charge:                   0
##########                     HBond_Acceptors:                   6
##########                        HBond_Donors:                   4
##########                         Heavy_Atoms:                  22
##########                            HA_RMSDs:               0.975
##########                            HA_RMSDh:               0.975
##########                            HA_RMSDm:               0.947
##########                          Grid_Score:          -42.184681
##########                     Grid_vdw_energy:          -40.233738
##########                      Grid_es_energy:           -1.950944
##########           Internal_energy_repulsive:            7.958981

@<TRIPOS>MOLECULE
*****
 36 38 1 0 0
SMALL
USER_CHARGES


@<TRIPOS>ATOM
      1 C1         35.8338   -0.1825  -26.9778 C.3     1  <0>        -0.0372
      2 C2         30.7391    0.1939  -27.7728 C.3     1  <0>        -0.0258
      3 C3         36.2036   -7.8051  -29.1704 C.ar    1  <0>        -0.0247
      4 C4         34.8355   -7.7388  -28.7868 C.ar    1  <0>        -0.0372
      5 C5         36.4477   -5.3434  -28.9374 C.ar    1  <0>        -0.0168
      6 C6         34.5739   -2.8904  -28.1375 C.2     1  <0>        -0.0275
      7 C7         34.4023   -0.4607  -27.3284 C.2     1  <0>        -0.0158
      8 C8         32.1675   -0.2049  -27.6462 C.2     1  <0>         0.0175
      9 C9         36.9926   -6.6186  -29.2422 C.ar    1  <0>         0.1241
     10 C10        34.3054   -6.4732  -28.4888 C.ar    1  <0>         0.0417
     11 C11        35.0781   -5.2811  -28.5557 C.ar    1  <0>         0.0111
     12 C12        33.8984   -1.6632  -27.8303 C.2     1  <0>         0.0356
     13 C13        33.2990    0.4736  -27.2128 C.2     1  <0>         0.0578
     14 C14        34.1584   -4.1767  -28.1741 C.2     1  <0>         0.0478
     15 C15        32.8183   -4.8204  -27.8864 C.2     1  <0>         0.2490
     16 C16        33.3693    1.8685  -26.7318 C.2     1  <0>         0.2433
     17 N1         34.0869    2.0564  -25.5634 N.am    1  <0>        -0.3253
     18 N2         32.5490   -1.4751  -28.0066 N.pl3   1  <0>        -0.3172
     19 N3         32.9994   -6.1870  -28.0986 N.am    1  <0>        -0.2809
     20 O1         31.7939   -4.2669  -27.5440 O.2     1  <0>        -0.2698
     21 O2         32.8147    2.7878  -27.3420 O.2     1  <0>        -0.2704
     22 F1         38.2813   -6.7147  -29.6042 F       1  <0>        -0.2055
     23 H1         36.3575    0.2142  -27.8605 H       1  <0>         0.0278
     24 H2         35.8747    0.5565  -26.1640 H       1  <0>         0.0278
     25 H3         36.3193   -1.1140  -26.6513 H       1  <0>         0.0278
     26 H4         30.5635    0.6191  -28.7721 H       1  <0>         0.0290
     27 H5         30.0979   -0.6889  -27.6328 H       1  <0>         0.0290
     28 H6         30.4993    0.9463  -27.0078 H       1  <0>         0.0290
     29 H7         36.6479   -8.7595  -29.4086 H       1  <0>         0.0647
     30 H8         34.2272   -8.6291  -28.7265 H       1  <0>         0.0637
     31 H9         37.0525   -4.4507  -28.9935 H       1  <0>         0.0653
     32 H10        35.6165   -2.7628  -28.3882 H       1  <0>         0.0644
     33 H11        34.1755    2.9727  -25.1726 H       1  <0>         0.1453
     34 H12        34.5166    1.2759  -25.1098 H       1  <0>         0.1453
     35 H13        31.9234   -2.1741  -28.3530 H       1  <0>         0.1519
     36 H14        32.2818   -6.8744  -27.9853 H       1  <0>         0.1552
@<TRIPOS>BOND
     1     9    22    1
     2     3    29    1
     3     3     9   ar
     4     5     9   ar
     5     3     4   ar
     6     1    23    1
     7     5    31    1
     8     5    11   ar
     9     4    30    1
    10     4    10   ar
    11    10    11   ar
    12    11    14    1
    13    10    19    1
    14     6    32    1
    15    19    36    1
    16    15    19   am
    17     6    14    2
    18    14    15    1
    19     6    12    1
    20     2    26    1
    21     1     7    1
    22     1    25    1
    23     1    24    1
    24    15    20    2
    25    16    21    2
    26     7    12    2
    27    12    18    1
    28     7    13    1
    29    18    35    1
    30     8    18    1
    31     8    13    2
    32    13    16    1
    33     2     8    1
    34    16    17   am
    35     2    27    1
    36     2    28    1
    37    17    33    1
    38    17    34    1
@<TRIPOS>SUBSTRUCTURE
     1 <0>         1 TEMP              0 ****  ****    0 ROOT

