
##########                                Name:               *****
##########                    Molecular_Weight:             299.305
##########                DOCK_Rotatable_Bonds:                   4
##########                       Formal_Charge:                   0
##########                     HBond_Acceptors:                   6
##########                        HBond_Donors:                   4
##########                         Heavy_Atoms:                  22
##########                            HA_RMSDs:               2.276
##########                            HA_RMSDh:               2.276
##########                            HA_RMSDm:               1.945
##########                          Grid_Score:          -39.802582
##########                     Grid_vdw_energy:          -39.107327
##########                      Grid_es_energy:           -0.695255
##########           Internal_energy_repulsive:            3.658422

@<TRIPOS>MOLECULE
*****
 36 38 1 0 0
SMALL
USER_CHARGES


@<TRIPOS>ATOM
      1 C1         36.0445   -0.0623  -26.2792 C.3     1  <0>        -0.0372
      2 C2         31.4870    1.8530  -27.7928 C.3     1  <0>        -0.0258
      3 C3         34.5569   -7.4223  -28.7287 C.ar    1  <0>        -0.0247
      4 C4         33.2883   -7.0133  -28.2321 C.ar    1  <0>        -0.0372
      5 C5         35.4047   -5.0881  -28.6497 C.ar    1  <0>        -0.0168
      6 C6         34.2593   -2.2293  -27.8229 C.2     1  <0>        -0.0275
      7 C7         34.6729    0.1137  -26.8601 C.2     1  <0>        -0.0158
      8 C8         32.6951    1.0393  -27.4864 C.2     1  <0>         0.0175
      9 C9         35.5963   -6.4664  -28.9319 C.ar    1  <0>         0.1241
     10 C10        33.1081   -5.6481  -27.9574 C.ar    1  <0>         0.0417
     11 C11        34.1336   -4.6825  -28.1547 C.ar    1  <0>         0.0111
     12 C12        33.9303   -0.8657  -27.5244 C.2     1  <0>         0.0356
     13 C13        33.8872    1.3326  -26.8372 C.2     1  <0>         0.0578
     14 C14        33.5465   -3.3763  -27.7545 C.2     1  <0>         0.0478
     15 C15        32.1256   -3.6653  -27.3178 C.2     1  <0>         0.2490
     16 C16        34.2809    2.6265  -26.2431 C.2     1  <0>         0.2433
     17 N1         34.0048    2.7670  -24.8941 N.am    1  <0>        -0.3253
     18 N2         32.7434   -0.2752  -27.8846 N.pl3   1  <0>        -0.3172
     19 N3         31.9528   -5.0408  -27.4715 N.am    1  <0>        -0.2809
     20 O1         31.3017   -2.8689  -26.9180 O.2     1  <0>        -0.2698
     21 O2         34.8134    3.5102  -26.9217 O.2     1  <0>        -0.2704
     22 F1         36.7831   -6.8843  -29.3985 F       1  <0>        -0.2055
     23 H1         36.7999    0.1852  -27.0401 H       1  <0>         0.0278
     24 H2         36.1639    0.6050  -25.4129 H       1  <0>         0.0278
     25 H3         36.1757   -1.1062  -25.9581 H       1  <0>         0.0278
     26 H4         31.6113    2.3415  -28.7706 H       1  <0>         0.0290
     27 H5         30.6021    1.2001  -27.8198 H       1  <0>         0.0290
     28 H6         31.3539    2.6190  -27.0154 H       1  <0>         0.0290
     29 H7         34.7346   -8.4631  -28.9531 H       1  <0>         0.0647
     30 H8         32.4933   -7.7265  -28.0719 H       1  <0>         0.0637
     31 H9         36.1973   -4.3715  -28.8056 H       1  <0>         0.0653
     32 H10        35.2728   -2.3670  -28.1694 H       1  <0>         0.0644
     33 H11        34.2379    3.6171  -24.4217 H       1  <0>         0.1453
     34 H12        33.5720    2.0185  -24.3921 H       1  <0>         0.1453
     35 H13        32.0075   -0.7428  -28.3741 H       1  <0>         0.1519
     36 H14        31.1059   -5.5290  -27.2598 H       1  <0>         0.1552
@<TRIPOS>BOND
     1     9    22    1
     2     3    29    1
     3     3     9   ar
     4     5     9   ar
     5     3     4   ar
     6     1    23    1
     7     5    31    1
     8     5    11   ar
     9     4    30    1
    10     4    10   ar
    11    10    11   ar
    12    11    14    1
    13    10    19    1
    14     6    32    1
    15    19    36    1
    16    15    19   am
    17     6    14    2
    18    14    15    1
    19     6    12    1
    20     2    26    1
    21     1     7    1
    22     1    25    1
    23     1    24    1
    24    15    20    2
    25    16    21    2
    26     7    12    2
    27    12    18    1
    28     7    13    1
    29    18    35    1
    30     8    18    1
    31     8    13    2
    32    13    16    1
    33     2     8    1
    34    16    17   am
    35     2    27    1
    36     2    28    1
    37    17    33    1
    38    17    34    1
@<TRIPOS>SUBSTRUCTURE
     1 <0>         1 TEMP              0 ****  ****    0 ROOT

