
##########                                Name:               *****
##########                    Molecular_Weight:             299.305
##########                DOCK_Rotatable_Bonds:                   4
##########                       Formal_Charge:                   0
##########                     HBond_Acceptors:                   6
##########                        HBond_Donors:                   4
##########                         Heavy_Atoms:                  22
##########                            HA_RMSDs:               0.903
##########                            HA_RMSDh:               0.903
##########                            HA_RMSDm:               0.878
##########                          Grid_Score:          -41.588650
##########                     Grid_vdw_energy:          -40.116386
##########                      Grid_es_energy:           -1.472263
##########           Internal_energy_repulsive:           12.071228

@<TRIPOS>MOLECULE
*****
 36 38 1 0 0
SMALL
USER_CHARGES


@<TRIPOS>ATOM
      1 C1         35.5541    0.0189  -27.5476 C.3     1  <0>        -0.0372
      2 C2         30.3857    0.0265  -27.4144 C.3     1  <0>        -0.0258
      3 C3         36.0239   -7.7725  -29.1170 C.ar    1  <0>        -0.0247
      4 C4         34.6301   -7.7137  -28.8396 C.ar    1  <0>        -0.0372
      5 C5         36.2458   -5.3160  -28.8168 C.ar    1  <0>        -0.0168
      6 C6         34.3120   -2.8792  -28.1163 C.2     1  <0>        -0.0275
      7 C7         34.1077   -0.3759  -27.5880 C.2     1  <0>        -0.0158
      8 C8         31.8393   -0.2787  -27.5103 C.2     1  <0>         0.0175
      9 C9         36.8145   -6.5850  -29.1036 C.ar    1  <0>         0.1241
     10 C10        34.0766   -6.4542  -28.5585 C.ar    1  <0>         0.0417
     11 C11        34.8506   -5.2611  -28.5415 C.ar    1  <0>         0.0111
     12 C12        33.6130   -1.6582  -27.8382 C.2     1  <0>         0.0356
     13 C13        32.9764    0.5080  -27.3813 C.2     1  <0>         0.0578
     14 C14        33.9025   -4.1644  -28.2106 C.2     1  <0>         0.0478
     15 C15        32.5450   -4.8135  -28.0408 C.2     1  <0>         0.2490
     16 C16        33.0276    1.9560  -27.0935 C.2     1  <0>         0.2433
     17 N1         34.0554    2.3575  -26.2580 N.am    1  <0>        -0.3253
     18 N2         32.2436   -1.5642  -27.7802 N.pl3   1  <0>        -0.3172
     19 N3         32.7439   -6.1757  -28.2654 N.am    1  <0>        -0.2809
     20 O1         31.4962   -4.2669  -27.7681 O.2     1  <0>        -0.2698
     21 O2         32.1981    2.7362  -27.5711 O.2     1  <0>        -0.2704
     22 F1         38.1275   -6.6741  -29.3663 F       1  <0>        -0.2055
     23 H1         35.8802    0.3218  -28.5539 H       1  <0>         0.0278
     24 H2         35.6849    0.8601  -26.8508 H       1  <0>         0.0278
     25 H3         36.1582   -0.8353  -27.2079 H       1  <0>         0.0278
     26 H4         30.0028    0.3064  -28.4070 H       1  <0>         0.0290
     27 H5         29.8475   -0.8616  -27.0517 H       1  <0>         0.0290
     28 H6         30.2315    0.8601  -26.7143 H       1  <0>         0.0290
     29 H7         36.4868   -8.7221  -29.3389 H       1  <0>         0.0647
     30 H8         34.0201   -8.6050  -28.8445 H       1  <0>         0.0637
     31 H9         36.8518   -4.4225  -28.8080 H       1  <0>         0.0653
     32 H10        35.3708   -2.7468  -28.2827 H       1  <0>         0.0644
     33 H11        34.1530    3.3223  -26.0131 H       1  <0>         0.1453
     34 H12        34.7002    1.6830  -25.8992 H       1  <0>         0.1453
     35 H13        31.6200   -2.3338  -27.9166 H       1  <0>         0.1519
     36 H14        32.0206   -6.8651  -28.2219 H       1  <0>         0.1552
@<TRIPOS>BOND
     1     9    22    1
     2     3    29    1
     3     3     9   ar
     4     5     9   ar
     5     3     4   ar
     6     1    23    1
     7     5    31    1
     8     5    11   ar
     9     4    30    1
    10     4    10   ar
    11    10    11   ar
    12    11    14    1
    13    10    19    1
    14     6    32    1
    15    19    36    1
    16    15    19   am
    17     6    14    2
    18    14    15    1
    19     6    12    1
    20     2    26    1
    21     1     7    1
    22     1    25    1
    23     1    24    1
    24    15    20    2
    25    16    21    2
    26     7    12    2
    27    12    18    1
    28     7    13    1
    29    18    35    1
    30     8    18    1
    31     8    13    2
    32    13    16    1
    33     2     8    1
    34    16    17   am
    35     2    27    1
    36     2    28    1
    37    17    33    1
    38    17    34    1
@<TRIPOS>SUBSTRUCTURE
     1 <0>         1 TEMP              0 ****  ****    0 ROOT

