ZINC000615622500
     RDKit          3D

 25 27  0  0  0  0  0  0  0  0999 V2000
   -3.7227    2.8443    0.0198 C   0  0  0  0  0  0  0  0  0  0  0  0
   -3.9000    1.3888    0.2223 N   0  0  0  0  0  0  0  0  0  0  0  0
   -5.1192    1.1137   -0.5736 C   0  0  0  0  0  0  0  0  0  0  0  0
   -2.8329    0.7660   -0.7626 C   0  0  1  0  0  0  0  0  0  0  0  0
   -1.5608    1.4947    0.0382 C   0  0  0  0  0  0  0  0  0  0  0  0
   -0.4071    1.0478   -0.7225 N   0  0  0  0  0  0  0  0  0  0  0  0
    0.8698    1.4555   -0.3524 C   0  0  0  0  0  0  0  0  0  0  0  0
    0.9667    2.2248    0.6669 O   0  0  0  0  0  0  0  0  0  0  0  0
    2.0938    1.1238   -0.9676 N   0  0  0  0  0  0  0  0  0  0  0  0
    3.3601    1.6437   -0.4441 C   0  0  0  0  0  0  0  0  0  0  0  0
    4.5070    1.0236   -1.4374 C   0  0  1  0  0  0  0  0  0  0  0  0
    5.7479    1.7366   -0.6497 C   0  0  0  0  0  0  0  0  0  0  0  0
    5.8487    0.3887   -0.0407 C   0  0  0  0  0  0  0  0  0  0  0  0
    6.6491   -0.3015    0.9006 C   0  0  0  0  0  0  0  0  0  0  0  0
    6.3764   -1.6000    1.1749 C   0  0  0  0  0  0  0  0  0  0  0  0
    5.3307   -2.2425    0.5445 C   0  0  0  0  0  0  0  0  0  0  0  0
    4.5490   -1.5326   -0.3883 C   0  0  0  0  0  0  0  0  0  0  0  0
    4.8153   -0.2593   -0.6588 C   0  0  0  0  0  0  0  0  0  0  0  0
   -2.6487   -0.6113    0.1155 C   0  0  0  0  0  0  0  0  0  0  0  0
   -3.9418   -1.2708    0.1890 C   0  0  0  0  0  0  0  0  0  0  0  0
   -4.2771   -2.1519   -0.8276 C   0  0  0  0  0  0  0  0  0  0  0  0
   -5.4608   -2.8126   -0.8195 C   0  0  0  0  0  0  0  0  0  0  0  0
   -6.3584   -2.6289    0.1919 C   0  0  0  0  0  0  0  0  0  0  0  0
   -6.0383   -1.7620    1.2003 C   0  0  0  0  0  0  0  0  0  0  0  0
   -4.8467   -1.0788    1.2190 C   0  0  0  0  0  0  0  0  0  0  0  0
  1  2  1  0
  2  3  1  0
  2  4  1  0
  4  5  1  1
  5  6  1  0
  6  7  1  0
  7  8  2  0
  7  9  1  0
  9 10  1  0
 11 10  1  1
 11 12  1  0
 12 13  1  0
 13 14  2  0
 14 15  1  0
 15 16  2  0
 16 17  1  0
 17 18  2  0
  4 19  1  0
 19 20  1  0
 20 21  2  0
 21 22  1  0
 22 23  2  0
 23 24  1  0
 24 25  2  0
 18 11  1  0
 25 20  1  0
 18 13  1  0
M  END
>  <zinc_id>  (1) 
ZINC000615622500

>  <smiles>  (1) 
CN(C)[C@@H](CNC(=O)NC[C@H]1Cc2ccccc21)Cc1ccccc1

$$$$
