ZINC000547933290
     RDKit          3D

 20 21  0  0  0  0  0  0  0  0999 V2000
   -1.3596    0.8109    1.7895 O   0  0  0  0  0  0  0  0  0  0  0  0
   -2.0395    1.2125    0.8562 C   0  0  0  0  0  0  0  0  0  0  0  0
   -3.1949    1.9187    1.0939 O   0  0  0  0  0  0  0  0  0  0  0  0
   -1.5733    0.9130   -0.5866 C   0  0  2  0  0  0  0  0  0  0  0  0
   -2.9946    0.2785   -1.0585 C   0  0  0  0  0  0  0  0  0  0  0  0
   -2.9576   -1.1610   -1.4537 C   0  0  0  0  0  0  0  0  0  0  0  0
   -3.1005   -2.2207   -0.3695 C   0  0  0  0  0  0  0  0  0  0  0  0
   -1.7685   -2.7266    0.2280 C   0  0  0  0  0  0  0  0  0  0  0  0
   -1.1398   -1.8589    1.2905 C   0  0  0  0  0  0  0  0  0  0  0  0
   -0.1332   -0.7634    0.8745 C   0  0  0  0  0  0  0  0  0  0  0  0
   -1.0633   -0.5935   -0.3585 C   0  0  2  0  0  0  0  0  0  0  0  0
    0.1220   -0.4796   -1.3898 N   0  0  0  0  0  0  0  0  0  0  0  0
    1.1660    0.7412   -0.9415 S   0  0  0  0  0  0  0  0  0  0  0  0
    0.5018    1.9451   -0.3925 O   0  0  0  0  0  0  0  0  0  0  0  0
    1.9039    1.1839   -2.1931 O   0  0  0  0  0  0  0  0  0  0  0  0
    2.3559    0.0763    0.1136 N   0  0  0  0  0  0  0  0  0  0  0  0
    3.1105   -0.9325   -0.5511 C   0  0  0  0  0  0  0  0  0  0  0  0
    4.3521   -0.2397   -1.0491 C   0  0  0  0  0  0  0  0  0  0  0  0
    4.5708    0.8336   -0.0187 C   0  0  0  0  0  0  0  0  0  0  0  0
    3.2418    1.0622    0.6371 C   0  0  0  0  0  0  0  0  0  0  0  0
  1  2  2  0
  2  3  1  0
  4  2  1  1
  4  5  1  0
  5  6  1  0
  6  7  1  0
  7  8  1  0
  8  9  1  0
  9 10  1  0
 10 11  1  0
 11 12  1  6
 12 13  1  0
 13 14  2  0
 13 15  2  0
 13 16  1  0
 16 17  1  0
 17 18  1  0
 18 19  1  0
 19 20  1  0
 11  4  1  0
 20 16  1  0
M  END
>  <zinc_id>  (1) 
ZINC000547933290

>  <smiles>  (1) 
O=C(O)[C@@H]1CCCCCC[C@@H]1NS(=O)(=O)N1CCCC1

$$$$
