ZINC000092642352
     RDKit          3D

 20 22  0  0  0  0  0  0  0  0999 V2000
   -4.4636   -2.0195    0.3358 C   0  0  0  0  0  0  0  0  0  0  0  0
   -4.8522   -0.4729   -0.1048 C   0  0  2  0  0  0  0  0  0  0  0  0
   -3.7632   -0.4755   -1.3233 C   0  0  0  0  0  0  0  0  0  0  0  0
   -3.7297    0.9935   -1.6874 C   0  0  0  0  0  0  0  0  0  0  0  0
   -2.9493    1.6883   -0.5939 C   0  0  0  0  0  0  0  0  0  0  0  0
   -2.8254    0.8508    0.5207 N   0  0  0  0  0  0  0  0  0  0  0  0
   -1.5017    0.3673    0.8129 C   0  0  0  0  0  0  0  0  0  0  0  0
   -0.6224    1.5295    1.1314 C   0  0  0  0  0  0  0  0  0  0  0  0
   -1.5725   -0.5307    2.0527 C   0  0  0  0  0  0  0  0  0  0  0  0
   -0.9848   -0.3807   -0.3643 C   0  0  0  0  0  0  0  0  0  0  0  0
    0.2981   -0.9022   -0.1902 N   0  0  0  0  0  0  0  0  0  0  0  0
    1.5249   -0.2145   -0.0549 C   0  0  0  0  0  0  0  0  0  0  0  0
    2.6723   -0.8386    0.1265 N   0  0  0  0  0  0  0  0  0  0  0  0
    3.7584   -0.1474    0.2299 C   0  0  0  0  0  0  0  0  0  0  0  0
    5.1122   -0.7958    0.4366 C   0  0  0  0  0  0  0  0  0  0  0  0
    6.3135   -0.1214   -0.0356 C   0  0  0  0  0  0  0  0  0  0  0  0
    5.7949   -1.3083   -0.8318 C   0  0  0  0  0  0  0  0  0  0  0  0
    3.6778    1.1831    0.1489 N   0  0  0  0  0  0  0  0  0  0  0  0
    2.0043    1.4182   -0.0798 S   0  0  0  0  0  0  0  0  0  0  0  0
   -3.8916    0.1767    1.0360 C   0  0  0  0  0  0  0  0  0  0  0  0
  2  1  1  1
  2  3  1  0
  3  4  1  0
  4  5  1  0
  5  6  1  0
  6  7  1  0
  7  8  1  0
  7  9  1  0
  7 10  1  0
 10 11  1  0
 11 12  1  0
 12 13  2  0
 13 14  1  0
 14 15  1  0
 15 16  1  0
 16 17  1  0
 14 18  2  0
 18 19  1  0
  6 20  1  0
 20  2  1  0
 19 12  1  0
 17 15  1  0
M  END
>  <zinc_id>  (1) 
ZINC000092642352

>  <smiles>  (1) 
C[C@@H]1CCCN(C(C)(C)CNc2nc(C3CC3)ns2)C1

$$$$
