ZINC000130532671
     RDKit          3D

 24 26  0  0  0  0  0  0  0  0999 V2000
   -1.9354    5.4877   -1.5155 C   0  0  0  0  0  0  0  0  0  0  0  0
   -2.2770    4.2481   -2.2600 C   0  0  0  0  0  0  0  0  0  0  0  0
   -2.0229    3.0577   -1.5981 O   0  0  0  0  0  0  0  0  0  0  0  0
   -0.7890    2.6162   -1.1399 C   0  0  0  0  0  0  0  0  0  0  0  0
    0.1627    3.3819   -1.3573 O   0  0  0  0  0  0  0  0  0  0  0  0
   -0.6435    1.3281   -0.4490 C   0  0  0  0  0  0  0  0  0  0  0  0
   -1.5902    0.4232   -0.1611 N   0  0  0  0  0  0  0  0  0  0  0  0
   -1.0920   -0.6308    0.4764 N   0  0  0  0  0  0  0  0  0  0  0  0
   -1.8862   -1.7529    0.9087 C   0  0  0  0  0  0  0  0  0  0  0  0
   -1.3460   -2.9427    1.2643 C   0  0  0  0  0  0  0  0  0  0  0  0
   -2.1550   -4.0070    1.6799 C   0  0  0  0  0  0  0  0  0  0  0  0
   -3.5342   -3.8253    1.7231 C   0  0  0  0  0  0  0  0  0  0  0  0
   -4.1209   -2.6107    1.3623 C   0  0  0  0  0  0  0  0  0  0  0  0
   -3.2742   -1.6264    0.9710 C   0  0  0  0  0  0  0  0  0  0  0  0
    0.2308   -0.4379    0.6258 C   0  0  0  0  0  0  0  0  0  0  0  0
    0.5273    0.7896    0.0496 C   0  0  0  0  0  0  0  0  0  0  0  0
    1.8144    1.5023   -0.0652 C   0  0  0  0  0  0  0  0  0  0  0  0
    2.8414    0.7578    0.5053 N   0  0  0  0  0  0  0  0  0  0  0  0
    2.9036    0.3372    1.7773 C   0  0  0  0  0  0  0  0  0  0  0  0
    3.6407    0.0363   -0.5740 C   0  0  2  0  0  0  0  0  0  0  0  0
    2.4563   -0.9206   -1.1514 C   0  0  0  0  0  0  0  0  0  0  0  0
    3.2770   -1.7715   -2.1079 C   0  0  0  0  0  0  0  0  0  0  0  0
    4.5945   -2.3152   -0.9450 S   0  0  0  0  0  0  0  0  0  0  0  0
    4.2176   -1.1251    0.4060 C   0  0  0  0  0  0  0  0  0  0  0  0
  1  2  1  0
  2  3  1  0
  3  4  1  0
  4  5  2  0
  4  6  1  0
  6  7  2  0
  7  8  1  0
  8  9  1  0
  9 10  2  0
 10 11  1  0
 11 12  2  0
 12 13  1  0
 13 14  2  0
  8 15  1  0
 15 16  2  0
 16 17  1  0
 17 18  1  0
 18 19  1  0
 20 18  1  1
 20 21  1  0
 21 22  1  0
 22 23  1  0
 23 24  1  0
 16  6  1  0
 24 20  1  0
 14  9  1  0
M  END
>  <zinc_id>  (1) 
ZINC000130532671

>  <smiles>  (1) 
CCOC(=O)c1nn(-c2ccccc2)cc1CN(C)[C@@H]1CCSC1

$$$$
