ZINC000275579920
     RDKit          3D

 25 27  0  0  0  0  0  0  0  0999 V2000
   -2.6163    3.4739    0.1873 C   0  0  0  0  0  0  0  0  0  0  0  0
   -1.9090    2.3609   -0.5292 C   0  0  0  0  0  0  0  0  0  0  0  0
   -1.0147    2.4448   -1.4855 O   0  0  0  0  0  0  0  0  0  0  0  0
   -0.6310    1.2366   -1.8537 C   0  0  0  0  0  0  0  0  0  0  0  0
    0.3637    0.8673   -2.9017 C   0  0  0  0  0  0  0  0  0  0  0  0
   -1.3051    0.2799   -1.1026 C   0  0  0  0  0  0  0  0  0  0  0  0
   -1.1995   -1.4497   -1.2105 S   0  0  0  0  0  0  0  0  0  0  0  0
   -1.1198   -1.8905   -2.6563 O   0  0  0  0  0  0  0  0  0  0  0  0
   -2.4722   -2.0699   -0.6770 O   0  0  0  0  0  0  0  0  0  0  0  0
    0.0805   -2.1120   -0.2898 N   0  0  0  0  0  0  0  0  0  0  0  0
    1.4345   -1.5370   -0.8516 C   0  0  2  0  0  0  0  0  0  0  0  0
    2.3318   -2.8015   -0.1452 C   0  0  0  0  0  0  0  0  0  0  0  0
    3.7523   -2.3697   -0.4523 C   0  0  0  0  0  0  0  0  0  0  0  0
    4.0504   -1.0919    0.0742 O   0  0  0  0  0  0  0  0  0  0  0  0
    3.0526   -0.4238    0.7572 C   0  0  0  0  0  0  0  0  0  0  0  0
    3.3551    0.4133    1.8349 C   0  0  0  0  0  0  0  0  0  0  0  0
    2.3223    1.0598    2.4872 C   0  0  0  0  0  0  0  0  0  0  0  0
    1.0174    0.8843    2.0848 C   0  0  0  0  0  0  0  0  0  0  0  0
    0.0149    1.5240    2.7331 F   0  0  0  0  0  0  0  0  0  0  0  0
    0.7503    0.0347    0.9965 C   0  0  0  0  0  0  0  0  0  0  0  0
    1.7554   -0.5846    0.3736 C   0  0  0  0  0  0  0  0  0  0  0  0
   -2.1304    1.0250   -0.2480 C   0  0  0  0  0  0  0  0  0  0  0  0
   -3.0244    0.4283    0.7254 C   0  0  0  0  0  0  0  0  0  0  0  0
   -4.2067    0.1519    0.3783 O   0  0  0  0  0  0  0  0  0  0  0  0
   -2.6523    0.1461    2.0118 O   0  0  0  0  0  0  0  0  0  0  0  0
  1  2  1  0
  2  3  1  0
  3  4  1  0
  4  5  1  0
  4  6  2  0
  6  7  1  0
  7  8  2  0
  7  9  2  0
  7 10  1  0
 11 10  1  1
 11 12  1  0
 12 13  1  0
 13 14  1  0
 14 15  1  0
 15 16  2  0
 16 17  1  0
 17 18  2  0
 18 19  1  0
 18 20  1  0
 20 21  2  0
  6 22  1  0
 22 23  1  0
 23 24  2  0
 23 25  1  0
 22  2  2  0
 21 11  1  0
 21 15  1  0
M  END
>  <zinc_id>  (1) 
ZINC000275579920

>  <smiles>  (1) 
Cc1oc(C)c(S(=O)(=O)N[C@@H]2CCOc3ccc(F)cc32)c1C(=O)O

$$$$
