ZINC000651262870
     RDKit          3D

 21 23  0  0  0  0  0  0  0  0999 V2000
   -2.9644    1.0460    1.3910 C   0  0  0  0  0  0  0  0  0  0  0  0
   -3.2056   -0.5647    1.3820 C   0  0  2  0  0  0  0  0  0  0  0  0
   -1.6743   -0.9308    1.7979 C   0  0  0  0  0  0  0  0  0  0  0  0
   -0.6895   -0.5555    0.9651 N   0  0  0  0  0  0  0  0  0  0  0  0
   -0.1755    0.6107    0.4159 C   0  0  0  0  0  0  0  0  0  0  0  0
   -0.6603    1.7185    0.7143 O   0  0  0  0  0  0  0  0  0  0  0  0
    0.9558    0.5277   -0.5221 C   0  0  0  0  0  0  0  0  0  0  0  0
    0.9584    0.6740   -1.8947 C   0  0  0  0  0  0  0  0  0  0  0  0
    2.2017    0.5192   -2.2714 O   0  0  0  0  0  0  0  0  0  0  0  0
    2.9894    0.2932   -1.2865 C   0  0  0  0  0  0  0  0  0  0  0  0
    4.3235    0.0747   -1.1681 C   0  0  0  0  0  0  0  0  0  0  0  0
    4.8862   -0.1312    0.0672 C   0  0  0  0  0  0  0  0  0  0  0  0
    4.1501   -0.1360    1.2160 C   0  0  0  0  0  0  0  0  0  0  0  0
    4.7762   -0.3866    2.7958 Cl  0  0  0  0  0  0  0  0  0  0  0  0
    2.7896    0.0779    1.1158 C   0  0  0  0  0  0  0  0  0  0  0  0
    2.2356    0.2850   -0.1158 C   0  0  0  0  0  0  0  0  0  0  0  0
   -2.9731   -0.7340   -0.1669 N   0  0  0  0  0  0  0  0  0  0  0  0
   -3.9202   -1.8194   -0.4157 C   0  0  0  0  0  0  0  0  0  0  0  0
   -5.2906   -1.2131   -0.3032 C   0  0  0  0  0  0  0  0  0  0  0  0
   -5.0865    0.2856   -0.5092 C   0  0  0  0  0  0  0  0  0  0  0  0
   -3.6265    0.3589   -0.8126 C   0  0  0  0  0  0  0  0  0  0  0  0
  2  1  1  6
  2  3  1  0
  3  4  1  0
  4  5  1  0
  5  6  2  0
  5  7  1  0
  7  8  2  0
  8  9  1  0
  9 10  1  0
 10 11  2  0
 11 12  1  0
 12 13  2  0
 13 14  1  0
 13 15  1  0
 15 16  2  0
  2 17  1  0
 17 18  1  0
 18 19  1  0
 19 20  1  0
 20 21  1  0
 16  7  1  0
 21 17  1  0
 16 10  1  0
M  END
>  <zinc_id>  (1) 
ZINC000651262870

>  <smiles>  (1) 
C[C@H](CNC(=O)c1coc2ccc(Cl)cc12)N1CCCC1

$$$$
