ZINC000518842864
     RDKit          3D

 24 26  0  0  0  0  0  0  0  0999 V2000
   -5.4118    2.8444    1.7133 C   0  0  0  0  0  0  0  0  0  0  0  0
   -4.4467    2.0913    1.0439 O   0  0  0  0  0  0  0  0  0  0  0  0
   -4.6432    0.7611    1.3267 C   0  0  0  0  0  0  0  0  0  0  0  0
   -3.5956   -0.0267    0.5972 C   0  0  0  0  0  0  0  0  0  0  0  0
   -3.5680   -1.3967    0.7120 C   0  0  0  0  0  0  0  0  0  0  0  0
   -2.6286   -2.1788    0.0653 C   0  0  0  0  0  0  0  0  0  0  0  0
   -2.5951   -3.9113    0.2115 Cl  0  0  0  0  0  0  0  0  0  0  0  0
   -1.7114   -1.5210   -0.7071 C   0  0  0  0  0  0  0  0  0  0  0  0
   -1.6965   -0.1582   -0.8539 C   0  0  0  0  0  0  0  0  0  0  0  0
   -0.4612    0.5429   -1.8752 S   0  0  0  0  0  0  0  0  0  0  0  0
   -1.0318    1.8716   -2.3407 O   0  0  0  0  0  0  0  0  0  0  0  0
   -0.2958   -0.4115   -2.9984 O   0  0  0  0  0  0  0  0  0  0  0  0
    0.8730    0.8328   -0.9249 N   0  0  0  0  0  0  0  0  0  0  0  0
    1.4398   -0.5109   -0.3093 C   0  0  2  0  0  0  0  0  0  0  0  0
    2.6481    0.1870    0.4879 C   0  0  0  0  0  0  0  0  0  0  0  0
    3.4678    1.0776    0.0781 N   0  0  0  0  0  0  0  0  0  0  0  0
    4.3673    1.4995    0.8871 C   0  0  0  0  0  0  0  0  0  0  0  0
    4.4308    0.9947    2.1566 C   0  0  0  0  0  0  0  0  0  0  0  0
    5.3857    1.3360    3.2572 C   0  0  0  0  0  0  0  0  0  0  0  0
    3.1211   -0.1080    2.0856 S   0  0  0  0  0  0  0  0  0  0  0  0
    2.3096   -0.9713   -1.6369 C   0  0  0  0  0  0  0  0  0  0  0  0
    2.9716   -2.3300   -1.2231 C   0  0  0  0  0  0  0  0  0  0  0  0
    3.7190   -1.0903   -1.5598 C   0  0  0  0  0  0  0  0  0  0  0  0
   -2.6481    0.5759   -0.1931 C   0  0  0  0  0  0  0  0  0  0  0  0
  1  2  1  0
  2  3  1  0
  3  4  1  0
  4  5  2  0
  5  6  1  0
  6  7  1  0
  6  8  2  0
  8  9  1  0
  9 10  1  0
 10 11  2  0
 10 12  2  0
 10 13  1  0
 14 13  1  6
 14 15  1  0
 15 16  2  0
 16 17  1  0
 17 18  2  0
 18 19  1  0
 18 20  1  0
 14 21  1  0
 21 22  1  0
 22 23  1  0
  9 24  2  0
 24  4  1  0
 20 15  1  0
 23 21  1  0
M  END
>  <zinc_id>  (1) 
ZINC000518842864

>  <smiles>  (1) 
COCc1cc(Cl)cc(S(=O)(=O)N[C@H](c2ncc(C)s2)C2CC2)c1

$$$$
