ZINC000415558697
     RDKit          3D

 24 25  0  0  0  0  0  0  0  0999 V2000
    8.0106   -1.8628    0.2098 C   0  0  0  0  0  0  0  0  0  0  0  0
    6.9793   -1.2243    1.1267 C   0  0  0  0  0  0  0  0  0  0  0  0
    5.5811   -1.3929    0.6410 C   0  0  0  0  0  0  0  0  0  0  0  0
    5.3683   -0.7658   -0.7418 C   0  0  0  0  0  0  0  0  0  0  0  0
    3.7647   -1.1218   -0.9764 C   0  0  2  0  0  0  0  0  0  0  0  0
    3.7338   -0.3876   -2.4654 C   0  0  0  0  0  0  0  0  0  0  0  0
    4.7239   -1.1292   -3.2312 N   0  0  0  0  0  0  0  0  0  0  0  0
    3.2779    0.1858   -0.2327 N   0  0  0  0  0  0  0  0  0  0  0  0
    1.8921    0.3053   -0.0897 C   0  0  0  0  0  0  0  0  0  0  0  0
    1.1649   -0.6159   -0.5536 O   0  0  0  0  0  0  0  0  0  0  0  0
    1.2095    1.3732    0.5341 N   0  0  0  0  0  0  0  0  0  0  0  0
   -0.1895    1.4059    0.6313 C   0  0  0  0  0  0  0  0  0  0  0  0
   -0.8972    2.4328    1.2233 C   0  0  0  0  0  0  0  0  0  0  0  0
   -2.1987    2.1095    1.1266 N   0  0  0  0  0  0  0  0  0  0  0  0
   -2.3374    0.9318    0.5037 N   0  0  0  0  0  0  0  0  0  0  0  0
   -3.5738    0.2827    0.2283 C   0  0  0  0  0  0  0  0  0  0  0  0
   -4.2891    0.5185   -0.9341 C   0  0  0  0  0  0  0  0  0  0  0  0
   -5.4955   -0.1391   -1.1675 C   0  0  0  0  0  0  0  0  0  0  0  0
   -5.9137   -1.0096   -0.1968 C   0  0  0  0  0  0  0  0  0  0  0  0
   -7.1901   -1.7309   -0.4017 C   0  0  0  0  0  0  0  0  0  0  0  0
   -5.2242   -1.2604    0.9626 C   0  0  0  0  0  0  0  0  0  0  0  0
   -4.0373   -0.6076    1.1828 C   0  0  0  0  0  0  0  0  0  0  0  0
   -3.2643   -0.8546    2.4274 C   0  0  0  0  0  0  0  0  0  0  0  0
   -1.0955    0.4880    0.1929 C   0  0  0  0  0  0  0  0  0  0  0  0
  1  2  1  0
  2  3  1  0
  3  4  1  0
  5  4  1  1
  5  6  1  0
  6  7  1  0
  5  8  1  0
  8  9  1  0
  9 10  2  0
  9 11  1  0
 11 12  1  0
 12 13  1  0
 13 14  2  0
 14 15  1  0
 15 16  1  0
 16 17  2  0
 17 18  1  0
 18 19  2  0
 19 20  1  0
 19 21  1  0
 21 22  2  0
 22 23  1  0
 15 24  1  0
 24 12  2  0
 22 16  1  0
M  END
>  <zinc_id>  (1) 
ZINC000415558697

>  <smiles>  (1) 
CCCC[C@H](CN)NC(=O)Nc1cnn(-c2ccc(C)cc2C)c1

$$$$
