ZINC000437075156
     RDKit          3D

 21 23  0  0  0  0  0  0  0  0999 V2000
   -0.6952   -0.8448   -2.8098 C   0  0  0  0  0  0  0  0  0  0  0  0
   -0.2854   -0.2476   -1.3229 C   0  0  2  0  0  0  0  0  0  0  0  0
   -0.0329   -1.6800   -0.7194 N   0  0  0  0  0  0  0  0  0  0  0  0
    1.2028   -1.5110    0.2433 C   0  0  2  0  0  0  0  0  0  0  0  0
    0.5793   -0.3886    1.2579 C   0  0  0  0  0  0  0  0  0  0  0  0
    1.6099   -0.2089    2.1592 O   0  0  0  0  0  0  0  0  0  0  0  0
    1.9778   -0.4530   -0.7194 C   0  0  0  0  0  0  0  0  0  0  0  0
    3.2429   -0.0803   -0.0607 C   0  0  0  0  0  0  0  0  0  0  0  0
    3.5205    1.0080    0.6894 C   0  0  0  0  0  0  0  0  0  0  0  0
    4.7185    1.2606    1.3040 C   0  0  0  0  0  0  0  0  0  0  0  0
    5.7316    0.3385    1.1584 C   0  0  0  0  0  0  0  0  0  0  0  0
    5.5039   -0.7914    0.4013 C   0  0  0  0  0  0  0  0  0  0  0  0
    4.2736   -1.0066   -0.2048 C   0  0  0  0  0  0  0  0  0  0  0  0
   -1.7253   -0.0747   -0.7830 C   0  0  0  0  0  0  0  0  0  0  0  0
   -2.7656    0.4928   -1.3937 C   0  0  0  0  0  0  0  0  0  0  0  0
   -3.9460    0.5435   -0.7462 C   0  0  0  0  0  0  0  0  0  0  0  0
   -3.9843   -0.0057    0.5180 C   0  0  0  0  0  0  0  0  0  0  0  0
   -2.3603   -0.5511    0.6972 S   0  0  0  0  0  0  0  0  0  0  0  0
   -5.3257    0.1150    1.1401 C   0  0  0  0  0  0  0  0  0  0  0  0
   -5.9282    1.2422    0.2761 C   0  0  0  0  0  0  0  0  0  0  0  0
   -5.3118    1.0877   -1.0850 C   0  0  0  0  0  0  0  0  0  0  0  0
  2  1  1  6
  2  3  1  0
  3  4  1  0
  4  5  1  1
  5  6  1  0
  4  7  1  0
  7  8  1  0
  8  9  2  0
  9 10  1  0
 10 11  2  0
 11 12  1  0
 12 13  2  0
  2 14  1  0
 14 15  2  0
 15 16  1  0
 16 17  2  0
 17 18  1  0
 17 19  1  0
 19 20  1  0
 20 21  1  0
 13  8  1  0
 18 14  1  0
 21 16  1  0
M  END
>  <zinc_id>  (1) 
ZINC000437075156

>  <smiles>  (1) 
C[C@H](N[C@H](CO)Cc1ccccc1)c1cc2c(s1)CCC2

$$$$
