ZINC000572302473
     RDKit          3D

 20 22  0  0  0  0  0  0  0  0999 V2000
    4.2998    0.8993   -0.9426 C   0  0  0  0  0  0  0  0  0  0  0  0
    4.7627   -0.1101    0.0798 C   0  0  0  0  0  0  0  0  0  0  0  0
    5.9145   -0.9493   -0.4211 C   0  0  0  0  0  0  0  0  0  0  0  0
    5.1763    0.6362    1.3516 C   0  0  0  0  0  0  0  0  0  0  0  0
    3.9028    0.7422    2.1710 C   0  0  0  0  0  0  0  0  0  0  0  0
    2.9641   -0.0668    1.4861 N   0  0  0  0  0  0  0  0  0  0  0  0
    1.8135    0.5898    0.9949 C   0  0  0  0  0  0  0  0  0  0  0  0
    0.8455   -0.2392    0.2895 C   0  0  0  0  0  0  0  0  0  0  0  0
    0.9718   -1.4897    0.0942 O   0  0  0  0  0  0  0  0  0  0  0  0
   -0.3388    0.3418   -0.2361 N   0  0  0  0  0  0  0  0  0  0  0  0
   -1.3401   -0.4638   -0.9548 C   0  0  0  0  0  0  0  0  0  0  0  0
   -2.4772    0.6401   -1.3441 C   0  0  2  0  0  0  0  0  0  0  0  0
   -2.8035    1.0599    0.1877 C   0  0  0  0  0  0  0  0  0  0  0  0
   -3.0810   -0.1896    0.8560 C   0  0  0  0  0  0  0  0  0  0  0  0
   -3.4131   -1.2337   -0.0764 C   0  0  0  0  0  0  0  0  0  0  0  0
   -3.7749   -0.4700   -1.4591 C   0  0  1  0  0  0  0  0  0  0  0  0
   -4.9001    0.5070   -0.7915 C   0  0  0  0  0  0  0  0  0  0  0  0
   -6.2283   -0.1080   -0.7032 C   0  0  0  0  0  0  0  0  0  0  0  0
   -5.9164    0.8621   -1.8404 C   0  0  0  0  0  0  0  0  0  0  0  0
    3.6225   -0.9584    0.6077 C   0  0  0  0  0  0  0  0  0  0  0  0
  1  2  1  0
  2  3  1  0
  2  4  1  0
  4  5  1  0
  5  6  1  0
  6  7  1  0
  7  8  1  0
  8  9  2  0
  8 10  1  0
 10 11  1  0
 12 11  1  1
 12 13  1  0
 13 14  1  0
 14 15  1  0
 15 16  1  0
 16 17  1  1
 17 18  1  0
 18 19  1  0
  6 20  1  0
 20  2  1  0
 16 12  1  0
 19 17  1  0
M  END
>  <zinc_id>  (1) 
ZINC000572302473

>  <smiles>  (1) 
CC1(C)CCN(CC(=O)NC[C@@H]2CCC[C@H]2C2CC2)C1

$$$$
