ZINC000375299581
     RDKit          3D

 25 28  0  0  0  0  0  0  0  0999 V2000
    6.1551    3.7481    1.1502 C   0  0  0  0  0  0  0  0  0  0  0  0
    5.7890    2.6557    0.7734 C   0  0  0  0  0  0  0  0  0  0  0  0
    5.3392    1.3348    0.3417 C   0  0  0  0  0  0  0  0  0  0  0  0
    3.9363    1.2333    0.4804 O   0  0  0  0  0  0  0  0  0  0  0  0
    3.3317    0.0409    0.1157 C   0  0  0  0  0  0  0  0  0  0  0  0
    4.0715   -1.0160   -0.3679 C   0  0  0  0  0  0  0  0  0  0  0  0
    3.4852   -2.2058   -0.7340 C   0  0  0  0  0  0  0  0  0  0  0  0
    2.1091   -2.3117   -0.6002 C   0  0  0  0  0  0  0  0  0  0  0  0
    1.3456   -1.2751   -0.1212 C   0  0  0  0  0  0  0  0  0  0  0  0
    1.9552   -0.0841    0.2424 C   0  0  0  0  0  0  0  0  0  0  0  0
    1.2092    1.0724    0.7632 C   0  0  0  0  0  0  0  0  0  0  0  0
   -0.2162    0.8307    0.8534 N   0  0  0  0  0  0  0  0  0  0  0  0
   -0.4601   -0.2697    1.7293 C   0  0  0  0  0  0  0  0  0  0  0  0
   -1.2948   -1.2936    1.0443 C   0  0  0  0  0  0  0  0  0  0  0  0
   -1.8705   -0.5330   -0.1360 C   0  0  1  0  0  0  0  0  0  0  0  0
   -0.8188    0.5097   -0.4255 C   0  0  0  0  0  0  0  0  0  0  0  0
   -2.1304   -1.4168   -1.2750 C   0  0  0  0  0  0  0  0  0  0  0  0
   -1.2637   -2.1172   -1.9097 O   0  0  0  0  0  0  0  0  0  0  0  0
   -3.5115   -1.3578   -1.5484 N   0  0  0  0  0  0  0  0  0  0  0  0
   -4.1256   -0.4619   -0.6130 C   0  0  0  0  0  0  0  0  0  0  0  0
   -5.4845   -0.1050   -0.5188 C   0  0  0  0  0  0  0  0  0  0  0  0
   -5.8728    0.7796    0.4592 C   0  0  0  0  0  0  0  0  0  0  0  0
   -4.9151    1.2836    1.3111 C   0  0  0  0  0  0  0  0  0  0  0  0
   -3.5962    0.9267    1.2069 C   0  0  0  0  0  0  0  0  0  0  0  0
   -3.1670    0.0323    0.2271 C   0  0  0  0  0  0  0  0  0  0  0  0
  1  2  3  0
  2  3  1  0
  3  4  1  0
  4  5  1  0
  5  6  2  0
  6  7  1  0
  7  8  2  0
  8  9  1  0
  9 10  2  0
 10 11  1  0
 11 12  1  0
 12 13  1  0
 13 14  1  0
 15 14  1  1
 15 16  1  0
 15 17  1  0
 17 18  2  0
 17 19  1  0
 19 20  1  0
 20 21  2  0
 21 22  1  0
 22 23  2  0
 23 24  1  0
 24 25  2  0
 10  5  1  0
 16 12  1  0
 25 20  1  0
 25 15  1  0
M  END
>  <zinc_id>  (1) 
ZINC000375299581

>  <smiles>  (1) 
C#CCOc1ccccc1CN1CC[C@@]2(C1)C(=O)Nc1ccccc12

$$$$
