ZINC000358506216
     RDKit          3D

 24 26  0  0  0  0  0  0  0  0999 V2000
   -2.6096   -1.9107   -2.7845 O   0  0  0  0  0  0  0  0  0  0  0  0
   -2.7760   -0.8389   -1.9470 C   0  0  0  0  0  0  0  0  0  0  0  0
   -1.6278   -0.6501   -0.9488 C   0  0  2  0  0  0  0  0  0  0  0  0
   -1.8191    0.8577   -0.4306 C   0  0  0  0  0  0  0  0  0  0  0  0
   -3.1205    0.7795    0.2875 C   0  0  0  0  0  0  0  0  0  0  0  0
   -3.0832    0.6010    1.6546 C   0  0  0  0  0  0  0  0  0  0  0  0
   -4.2634    0.5082    2.3231 C   0  0  0  0  0  0  0  0  0  0  0  0
   -5.4433    0.5909    1.6302 C   0  0  0  0  0  0  0  0  0  0  0  0
   -6.6329    0.5173    2.3182 F   0  0  0  0  0  0  0  0  0  0  0  0
   -5.4979    0.7652    0.2396 C   0  0  0  0  0  0  0  0  0  0  0  0
   -4.2734    0.8578   -0.3999 C   0  0  0  0  0  0  0  0  0  0  0  0
   -0.3697   -0.4886   -1.6870 N   0  0  0  0  0  0  0  0  0  0  0  0
    0.1800   -1.8690   -1.8900 C   0  0  0  0  0  0  0  0  0  0  0  0
    1.4636   -1.6935   -1.0965 C   0  0  0  0  0  0  0  0  0  0  0  0
    1.8998   -2.5722   -0.1397 C   0  0  0  0  0  0  0  0  0  0  0  0
    3.0188   -1.9478    0.4831 C   0  0  0  0  0  0  0  0  0  0  0  0
    3.1635   -0.7698   -0.1421 N   0  0  0  0  0  0  0  0  0  0  0  0
    4.0890    0.2998    0.2421 C   0  0  0  0  0  0  0  0  0  0  0  0
    4.4005    1.2531   -0.6768 C   0  0  0  0  0  0  0  0  0  0  0  0
    5.2667    2.3119   -0.3023 C   0  0  0  0  0  0  0  0  0  0  0  0
    5.7494    2.3194    0.9696 C   0  0  0  0  0  0  0  0  0  0  0  0
    5.4682    1.3733    1.9041 C   0  0  0  0  0  0  0  0  0  0  0  0
    4.5857    0.3361    1.4884 C   0  0  0  0  0  0  0  0  0  0  0  0
    2.2316   -0.6305   -1.0955 N   0  0  0  0  0  0  0  0  0  0  0  0
  1  2  1  0
  3  2  1  6
  3  4  1  0
  4  5  1  0
  5  6  2  0
  6  7  1  0
  7  8  2  0
  8  9  1  0
  8 10  1  0
 10 11  2  0
  3 12  1  0
 12 13  1  0
 13 14  1  0
 14 15  1  0
 15 16  2  0
 16 17  1  0
 17 18  1  0
 18 19  2  0
 19 20  1  0
 20 21  2  0
 21 22  1  0
 22 23  2  0
 17 24  1  0
 11  5  1  0
 24 14  2  0
 23 18  1  0
M  END
>  <zinc_id>  (1) 
ZINC000358506216

>  <smiles>  (1) 
OC[C@H](Cc1ccc(F)cc1)NCc1ccn(-c2ccccc2)n1

$$$$
