ZINC000362128724
     RDKit          3D

 22 23  0  0  0  0  0  0  0  0999 V2000
    1.9200   -2.0035   -1.1619 C   0  0  0  0  0  0  0  0  0  0  0  0
    1.6962   -1.9039    0.2511 N   0  0  0  0  0  0  0  0  0  0  0  0
    0.5740   -2.6377    0.6633 C   0  0  0  0  0  0  0  0  0  0  0  0
   -0.7094   -2.0958    0.1813 C   0  0  0  0  0  0  0  0  0  0  0  0
   -1.0811   -0.7786    0.5915 N   0  0  0  0  0  0  0  0  0  0  0  0
   -2.3850   -0.3387    0.1416 C   0  0  0  0  0  0  0  0  0  0  0  0
   -3.1732   -1.1206   -0.6203 N   0  0  0  0  0  0  0  0  0  0  0  0
   -4.3732   -0.6573   -0.9932 C   0  0  0  0  0  0  0  0  0  0  0  0
   -4.8707    0.5905   -0.6470 C   0  0  0  0  0  0  0  0  0  0  0  0
   -6.1733    1.0122   -1.0920 C   0  0  0  0  0  0  0  0  0  0  0  0
   -7.2286    1.3321   -1.4450 N   0  0  0  0  0  0  0  0  0  0  0  0
   -4.0733    1.4023    0.1329 C   0  0  0  0  0  0  0  0  0  0  0  0
   -2.8235    0.9014    0.5123 C   0  0  0  0  0  0  0  0  0  0  0  0
   -1.7663    1.9124    1.5164 Cl  0  0  0  0  0  0  0  0  0  0  0  0
    1.7060   -0.5304    0.6506 C   0  0  0  0  0  0  0  0  0  0  0  0
    3.0411    0.0722    0.3416 C   0  0  0  0  0  0  0  0  0  0  0  0
    4.0236   -0.1641    1.2953 C   0  0  0  0  0  0  0  0  0  0  0  0
    5.2904    0.3394    1.0816 C   0  0  0  0  0  0  0  0  0  0  0  0
    5.6019    1.0620   -0.0412 C   0  0  0  0  0  0  0  0  0  0  0  0
    6.8557    1.5267   -0.2013 F   0  0  0  0  0  0  0  0  0  0  0  0
    4.6221    1.2898   -0.9777 C   0  0  0  0  0  0  0  0  0  0  0  0
    3.3268    0.7894   -0.7841 C   0  0  0  0  0  0  0  0  0  0  0  0
  1  2  1  0
  2  3  1  0
  3  4  1  0
  4  5  1  0
  5  6  1  0
  6  7  2  0
  7  8  1  0
  8  9  2  0
  9 10  1  0
 10 11  3  0
  9 12  1  0
 12 13  2  0
 13 14  1  0
  2 15  1  0
 15 16  1  0
 16 17  2  0
 17 18  1  0
 18 19  2  0
 19 20  1  0
 19 21  1  0
 21 22  2  0
 13  6  1  0
 22 16  1  0
M  END
>  <zinc_id>  (1) 
ZINC000362128724

>  <smiles>  (1) 
CN(CCNc1ncc(C#N)cc1Cl)Cc1ccc(F)cc1

$$$$
