ZINC000237938360
     RDKit          3D

 22 24  0  0  0  0  0  0  0  0999 V2000
    7.1794   -0.1226    2.1251 C   0  0  0  0  0  0  0  0  0  0  0  0
    6.3431   -0.1267    0.8896 C   0  0  0  0  0  0  0  0  0  0  0  0
    6.8826    0.1004   -0.3566 C   0  0  0  0  0  0  0  0  0  0  0  0
    6.1017    0.0948   -1.4942 C   0  0  0  0  0  0  0  0  0  0  0  0
    4.7539   -0.1486   -1.3301 C   0  0  0  0  0  0  0  0  0  0  0  0
    4.2188   -0.3744   -0.0901 C   0  0  0  0  0  0  0  0  0  0  0  0
    2.7451   -0.6308   -0.0030 C   0  0  0  0  0  0  0  0  0  0  0  0
    2.0911    0.7225    0.1776 C   0  0  0  0  0  0  0  0  0  0  0  0
    0.6464    0.5727    0.2724 N   0  0  0  0  0  0  0  0  0  0  0  0
    0.1796    0.1430   -1.0223 C   0  0  0  0  0  0  0  0  0  0  0  0
   -1.3057   -0.0380   -1.0168 C   0  0  0  0  0  0  0  0  0  0  0  0
   -2.0884   -0.4447   -2.0744 C   0  0  0  0  0  0  0  0  0  0  0  0
   -3.3714   -0.4575   -1.5804 C   0  0  0  0  0  0  0  0  0  0  0  0
   -3.3832   -0.0758   -0.2755 N   0  0  0  0  0  0  0  0  0  0  0  0
   -4.5219    0.0326    0.5704 C   0  0  0  0  0  0  0  0  0  0  0  0
   -5.4260    1.0342    0.3524 C   0  0  0  0  0  0  0  0  0  0  0  0
   -6.5557    1.1707    1.1633 C   0  0  0  0  0  0  0  0  0  0  0  0
   -6.7795    0.3014    2.1944 C   0  0  0  0  0  0  0  0  0  0  0  0
   -5.8624   -0.7064    2.4074 C   0  0  0  0  0  0  0  0  0  0  0  0
   -4.7295   -0.8477    1.5987 C   0  0  0  0  0  0  0  0  0  0  0  0
   -2.1157    0.1711    0.0344 N   0  0  0  0  0  0  0  0  0  0  0  0
    4.9977   -0.3702    1.0580 C   0  0  0  0  0  0  0  0  0  0  0  0
  1  2  1  0
  2  3  2  0
  3  4  1  0
  4  5  2  0
  5  6  1  0
  6  7  1  0
  7  8  1  0
  8  9  1  0
  9 10  1  0
 10 11  1  0
 11 12  1  0
 12 13  2  0
 13 14  1  0
 14 15  1  0
 15 16  2  0
 16 17  1  0
 17 18  2  0
 18 19  1  0
 19 20  2  0
 14 21  1  0
  6 22  2  0
 22  2  1  0
 21 11  2  0
 20 15  1  0
M  END
>  <zinc_id>  (1) 
ZINC000237938360

>  <smiles>  (1) 
Cc1cccc(CCNCc2ccn(-c3ccccc3)n2)c1

$$$$
