ZINC000449156693
     RDKit          3D

 22 23  0  0  0  0  0  0  0  0999 V2000
   -5.9188    1.8084   -0.6811 C   0  0  0  0  0  0  0  0  0  0  0  0
   -4.4214    1.8036   -0.6864 C   0  0  0  0  0  0  0  0  0  0  0  0
   -3.8105    0.5116   -0.2291 C   0  0  0  0  0  0  0  0  0  0  0  0
   -4.2435   -0.6472   -1.1231 C   0  0  0  0  0  0  0  0  0  0  0  0
   -3.5869   -1.9007   -0.6119 C   0  0  0  0  0  0  0  0  0  0  0  0
   -4.5415    0.1874    1.2261 C   0  0  1  0  0  0  0  0  0  0  0  0
   -3.7515   -1.1001    1.4382 O   0  0  0  0  0  0  0  0  0  0  0  0
   -3.4918    1.0885    2.1379 C   0  0  0  0  0  0  0  0  0  0  0  0
   -2.2227    1.0353    1.5805 N   0  0  0  0  0  0  0  0  0  0  0  0
   -1.4823   -0.1579    1.5750 C   0  0  0  0  0  0  0  0  0  0  0  0
   -0.1579    0.0316    0.9337 C   0  0  0  0  0  0  0  0  0  0  0  0
    0.4607    1.1509    0.4677 C   0  0  0  0  0  0  0  0  0  0  0  0
    1.6322    1.0482   -0.0566 N   0  0  0  0  0  0  0  0  0  0  0  0
    2.2096   -0.1460   -0.1310 C   0  0  0  0  0  0  0  0  0  0  0  0
    3.5147   -0.5314   -0.6724 C   0  0  0  0  0  0  0  0  0  0  0  0
    3.9052   -1.8427   -0.6558 C   0  0  0  0  0  0  0  0  0  0  0  0
    5.1435   -2.2307   -1.1631 C   0  0  0  0  0  0  0  0  0  0  0  0
    5.9383   -1.2288   -1.6744 C   0  0  0  0  0  0  0  0  0  0  0  0
    5.5440    0.0922   -1.6906 C   0  0  0  0  0  0  0  0  0  0  0  0
    4.3316    0.4446   -1.1901 C   0  0  0  0  0  0  0  0  0  0  0  0
    3.9200    1.7406   -1.1943 F   0  0  0  0  0  0  0  0  0  0  0  0
    1.0291   -1.1574    0.5768 S   0  0  0  0  0  0  0  0  0  0  0  0
  1  2  1  0
  2  3  1  0
  3  4  1  0
  4  5  1  0
  3  6  1  0
  6  7  1  1
  6  8  1  0
  8  9  1  0
  9 10  1  0
 10 11  1  0
 11 12  2  0
 12 13  1  0
 13 14  2  0
 14 15  1  0
 15 16  2  0
 16 17  1  0
 17 18  2  0
 18 19  1  0
 19 20  2  0
 20 21  1  0
 14 22  1  0
 22 11  1  0
 20 15  1  0
M  END
>  <zinc_id>  (1) 
ZINC000449156693

>  <smiles>  (1) 
CCC(CC)[C@@H](O)CNCc1cnc(-c2ccccc2F)s1

$$$$
