ZINC000609076791
     RDKit          3D

 19 20  0  0  0  0  0  0  0  0999 V2000
    5.5530    1.1593   -0.7541 C   0  0  0  0  0  0  0  0  0  0  0  0
    4.1998    0.6552   -0.3946 C   0  0  0  0  0  0  0  0  0  0  0  0
    3.3269    1.3949    0.3615 C   0  0  0  0  0  0  0  0  0  0  0  0
    2.0890    0.8716    0.6593 C   0  0  0  0  0  0  0  0  0  0  0  0
    1.7113   -0.3821    0.2114 C   0  0  0  0  0  0  0  0  0  0  0  0
    0.3910   -0.9110    0.5436 C   0  0  0  0  0  0  0  0  0  0  0  0
    0.0923   -2.0459    0.1100 O   0  0  0  0  0  0  0  0  0  0  0  0
   -0.5244   -0.1791    1.3246 N   0  0  0  0  0  0  0  0  0  0  0  0
   -1.8557   -0.7022    1.6653 C   0  0  0  0  0  0  0  0  0  0  0  0
   -2.5013   -0.9089    0.1368 C   0  0  1  0  0  0  0  0  0  0  0  0
   -3.9399   -1.4813    0.7376 C   0  0  0  0  0  0  0  0  0  0  0  0
   -2.9357    0.6116    0.0337 N   0  0  0  0  0  0  0  0  0  0  0  0
   -3.8586    0.9260    1.0042 C   0  0  0  0  0  0  0  0  0  0  0  0
   -5.0994    1.4076    0.2552 C   0  0  0  0  0  0  0  0  0  0  0  0
   -4.9165    0.8722   -1.1661 C   0  0  0  0  0  0  0  0  0  0  0  0
   -3.4278    0.8088   -1.2873 C   0  0  0  0  0  0  0  0  0  0  0  0
    2.6173   -1.0952   -0.5463 C   0  0  0  0  0  0  0  0  0  0  0  0
    3.8646   -0.6015   -0.8629 C   0  0  0  0  0  0  0  0  0  0  0  0
    5.2141   -1.7462   -2.0319 I   0  0  0  0  0  0  0  0  0  0  0  0
  1  2  1  0
  2  3  2  0
  3  4  1  0
  4  5  2  0
  5  6  1  0
  6  7  2  0
  6  8  1  0
  8  9  1  0
  9 10  1  0
 10 11  1  1
 10 12  1  0
 12 13  1  0
 13 14  1  0
 14 15  1  0
 15 16  1  0
  5 17  1  0
 17 18  2  0
 18 19  1  0
 18  2  1  0
 16 12  1  0
M  END
>  <zinc_id>  (1) 
ZINC000609076791

>  <smiles>  (1) 
Cc1ccc(C(=O)NC[C@@H](C)N2CCCC2)cc1I

$$$$
