ZINC000640028109
     RDKit          3D

 20 22  0  0  0  0  0  0  0  0999 V2000
    0.5041    0.6517    0.7095 O   0  0  0  0  0  0  0  0  0  0  0  0
    0.3737   -0.3234   -0.0537 C   0  0  0  0  0  0  0  0  0  0  0  0
   -0.9294   -0.9397   -0.2997 C   0  0  0  0  0  0  0  0  0  0  0  0
   -2.0112   -0.3108    0.4080 N   0  0  0  0  0  0  0  0  0  0  0  0
   -2.4196    0.9036    0.1127 C   0  0  0  0  0  0  0  0  0  0  0  0
   -3.9110    0.8953   -0.5155 C   0  0  1  0  0  0  0  0  0  0  0  0
   -3.4704    1.6178   -1.7923 O   0  0  0  0  0  0  0  0  0  0  0  0
   -3.6969   -0.5667   -1.1901 C   0  0  0  0  0  0  0  0  0  0  0  0
   -3.1691   -1.3536    0.1450 C   0  0  2  0  0  0  0  0  0  0  0  0
   -4.1645   -0.7081    1.1812 C   0  0  0  0  0  0  0  0  0  0  0  0
   -5.4274   -1.0768    1.5263 C   0  0  0  0  0  0  0  0  0  0  0  0
   -4.4508   -0.0156    2.1837 C   0  0  0  0  0  0  0  0  0  0  0  0
    1.4909   -0.8964   -0.7333 N   0  0  0  0  0  0  0  0  0  0  0  0
    2.7975   -0.4040   -0.5856 C   0  0  0  0  0  0  0  0  0  0  0  0
    2.9990    0.6471    0.2857 C   0  0  0  0  0  0  0  0  0  0  0  0
    4.2300    1.1820    0.4837 C   0  0  0  0  0  0  0  0  0  0  0  0
    5.2990    0.6475   -0.2145 C   0  0  0  0  0  0  0  0  0  0  0  0
    7.0323    1.3783    0.0464 Br  0  0  0  0  0  0  0  0  0  0  0  0
    5.0870   -0.3853   -1.0673 C   0  0  0  0  0  0  0  0  0  0  0  0
    3.8367   -0.9428   -1.2809 C   0  0  0  0  0  0  0  0  0  0  0  0
  1  2  2  0
  2  3  1  0
  3  4  1  0
  4  5  1  0
  5  6  1  0
  6  7  1  6
  6  8  1  0
  8  9  1  0
  9 10  1  1
 10 11  1  0
 11 12  1  0
  2 13  1  0
 13 14  1  0
 14 15  2  0
 15 16  1  0
 16 17  2  0
 17 18  1  0
 17 19  1  0
 19 20  2  0
  9  4  1  0
 12 10  1  0
 20 14  1  0
M  END
>  <zinc_id>  (1) 
ZINC000640028109

>  <smiles>  (1) 
O=C(CN1C[C@@H](O)C[C@@H]1C1CC1)Nc1ccc(Br)cc1

$$$$
