ZINC000601953994
     RDKit          3D

 23 25  0  0  0  0  0  0  0  0999 V2000
   -6.7159    2.5151    0.8325 N   0  0  0  0  0  0  0  0  0  0  0  0
   -5.7738    1.9579    0.5192 C   0  0  0  0  0  0  0  0  0  0  0  0
   -4.5866    1.2329    0.1259 C   0  0  0  0  0  0  0  0  0  0  0  0
   -3.9294    1.4842   -1.0525 C   0  0  0  0  0  0  0  0  0  0  0  0
   -2.8022    0.7718   -1.3904 C   0  0  0  0  0  0  0  0  0  0  0  0
   -2.3758   -0.1651   -0.5355 N   0  0  0  0  0  0  0  0  0  0  0  0
   -2.9701   -0.4523    0.6175 C   0  0  0  0  0  0  0  0  0  0  0  0
   -2.4392   -1.7010    1.7694 S   0  0  0  0  0  0  0  0  0  0  0  0
   -0.9309   -2.4803    1.1762 C   0  0  0  0  0  0  0  0  0  0  0  0
    0.2777   -1.5934    1.1920 C   0  0  2  0  0  0  0  0  0  0  0  0
    0.5503   -1.1471    2.5122 O   0  0  0  0  0  0  0  0  0  0  0  0
    0.2477   -0.4456    0.2421 C   0  0  0  0  0  0  0  0  0  0  0  0
    1.1071   -0.9074   -0.9084 C   0  0  0  0  0  0  0  0  0  0  0  0
    2.1361   -1.6734   -0.2788 N   0  0  0  0  0  0  0  0  0  0  0  0
    3.1232   -0.9128    0.4119 C   0  0  0  0  0  0  0  0  0  0  0  0
    3.8669    0.0344   -0.4417 C   0  0  0  0  0  0  0  0  0  0  0  0
    3.6481    0.2014   -1.7841 C   0  0  0  0  0  0  0  0  0  0  0  0
    4.3964    1.1142   -2.4991 C   0  0  0  0  0  0  0  0  0  0  0  0
    5.3809    1.8742   -1.8624 C   0  0  0  0  0  0  0  0  0  0  0  0
    5.6097    1.7146   -0.5116 C   0  0  0  0  0  0  0  0  0  0  0  0
    4.8469    0.7954    0.1754 C   0  0  0  0  0  0  0  0  0  0  0  0
    1.4428   -2.4851    0.7299 C   0  0  0  0  0  0  0  0  0  0  0  0
   -4.1101    0.2676    0.9603 C   0  0  0  0  0  0  0  0  0  0  0  0
  1  2  3  0
  2  3  1  0
  3  4  2  0
  4  5  1  0
  5  6  2  0
  6  7  1  0
  7  8  1  0
  8  9  1  0
  9 10  1  0
 10 11  1  1
 10 12  1  0
 12 13  1  0
 13 14  1  0
 14 15  1  0
 15 16  1  0
 16 17  2  0
 17 18  1  0
 18 19  2  0
 19 20  1  0
 20 21  2  0
 14 22  1  0
  7 23  2  0
 23  3  1  0
 22 10  1  0
 21 16  1  0
M  END
>  <zinc_id>  (1) 
ZINC000601953994

>  <smiles>  (1) 
N#Cc1ccnc(SC[C@]2(O)CCN(Cc3ccccc3)C2)c1

$$$$
