ZINC000480408888
     RDKit          3D

 24 26  0  0  0  0  0  0  0  0999 V2000
   -3.0368    1.9216   -0.8526 C   0  0  0  0  0  0  0  0  0  0  0  0
   -4.3806    1.5219   -0.5418 N   0  0  0  0  0  0  0  0  0  0  0  0
   -4.7760    2.2396    0.6791 C   0  0  0  0  0  0  0  0  0  0  0  0
   -4.3730    0.1178   -0.1865 C   0  0  1  0  0  0  0  0  0  0  0  0
   -3.5717   -0.1811    1.0263 C   0  0  0  0  0  0  0  0  0  0  0  0
   -2.2129    0.1304    1.0594 N   0  0  0  0  0  0  0  0  0  0  0  0
   -1.2346   -0.3855    0.2229 C   0  0  0  0  0  0  0  0  0  0  0  0
   -1.4157   -1.2097   -0.6876 O   0  0  0  0  0  0  0  0  0  0  0  0
    0.1583    0.0817    0.4272 C   0  0  0  0  0  0  0  0  0  0  0  0
    0.6060    1.0571    1.2901 C   0  0  0  0  0  0  0  0  0  0  0  0
    1.9259    1.1506    1.1577 N   0  0  0  0  0  0  0  0  0  0  0  0
    2.3823    0.2889    0.2519 N   0  0  0  0  0  0  0  0  0  0  0  0
    3.7283    0.0879   -0.1631 C   0  0  0  0  0  0  0  0  0  0  0  0
    4.7523    0.3046    0.7440 C   0  0  0  0  0  0  0  0  0  0  0  0
    6.0772    0.1232    0.3960 C   0  0  0  0  0  0  0  0  0  0  0  0
    6.4016   -0.2869   -0.8950 C   0  0  0  0  0  0  0  0  0  0  0  0
    8.0715   -0.5173   -1.3329 Cl  0  0  0  0  0  0  0  0  0  0  0  0
    5.4148   -0.5078   -1.8095 C   0  0  0  0  0  0  0  0  0  0  0  0
    4.0878   -0.3174   -1.4310 C   0  0  0  0  0  0  0  0  0  0  0  0
    1.3023   -0.3731   -0.2029 C   0  0  0  0  0  0  0  0  0  0  0  0
   -5.8173   -0.3230    0.1658 C   0  0  0  0  0  0  0  0  0  0  0  0
   -5.5844   -1.7299    0.7392 C   0  0  0  0  0  0  0  0  0  0  0  0
   -4.5367   -2.4004   -0.6173 S   0  0  0  0  0  0  0  0  0  0  0  0
   -3.9687   -0.7933   -1.3137 C   0  0  0  0  0  0  0  0  0  0  0  0
  1  2  1  0
  2  3  1  0
  2  4  1  0
  4  5  1  1
  5  6  1  0
  6  7  1  0
  7  8  2  0
  7  9  1  0
  9 10  1  0
 10 11  2  0
 11 12  1  0
 12 13  1  0
 13 14  2  0
 14 15  1  0
 15 16  2  0
 16 17  1  0
 16 18  1  0
 18 19  2  0
 12 20  1  0
  4 21  1  0
 21 22  1  0
 22 23  1  0
 23 24  1  0
 24  4  1  0
 20  9  2  0
 19 13  1  0
M  END
>  <zinc_id>  (1) 
ZINC000480408888

>  <smiles>  (1) 
CN(C)[C@@]1(CNC(=O)c2cnn(-c3ccc(Cl)cc3)c2)CCSC1

$$$$
