ZINC000549719643
     RDKit          3D

 25 27  0  0  0  0  0  0  0  0999 V2000
   -3.2894    2.8810    1.6636 C   0  0  0  0  0  0  0  0  0  0  0  0
   -4.1632    1.7296    1.5931 N   0  0  0  0  0  0  0  0  0  0  0  0
   -5.5159    1.7971    1.5970 C   0  0  0  0  0  0  0  0  0  0  0  0
   -5.9603    0.5313    1.5194 N   0  0  0  0  0  0  0  0  0  0  0  0
   -4.8951   -0.2808    1.4697 N   0  0  0  0  0  0  0  0  0  0  0  0
   -3.7731    0.4542    1.5150 C   0  0  0  0  0  0  0  0  0  0  0  0
   -2.1376   -0.2517    1.4721 S   0  0  0  0  0  0  0  0  0  0  0  0
   -1.6092   -0.3648   -0.2251 C   0  0  0  0  0  0  0  0  0  0  0  0
   -2.3761    0.0415   -1.3001 C   0  0  0  0  0  0  0  0  0  0  0  0
   -1.9438   -0.0569   -2.6062 C   0  0  0  0  0  0  0  0  0  0  0  0
   -0.6963   -0.5809   -2.8577 C   0  0  0  0  0  0  0  0  0  0  0  0
    0.0841   -0.9919   -1.7998 C   0  0  0  0  0  0  0  0  0  0  0  0
   -0.3656   -0.8873   -0.4764 C   0  0  0  0  0  0  0  0  0  0  0  0
    0.4193   -1.3036    0.6281 N   0  0  0  0  0  0  0  0  0  0  0  0
    1.9849   -1.9623    0.2971 S   0  0  0  0  0  0  0  0  0  0  0  0
    1.9099   -3.1669   -0.5860 O   0  0  0  0  0  0  0  0  0  0  0  0
    2.6411   -2.4004    1.5772 O   0  0  0  0  0  0  0  0  0  0  0  0
    2.9676   -0.7528   -0.4936 C   0  0  0  0  0  0  0  0  0  0  0  0
    3.4871   -0.9676   -1.7511 C   0  0  0  0  0  0  0  0  0  0  0  0
    4.2667   -0.0454   -2.4147 C   0  0  0  0  0  0  0  0  0  0  0  0
    4.5385    1.1428   -1.7940 C   0  0  0  0  0  0  0  0  0  0  0  0
    4.0394    1.3897   -0.5460 C   0  0  0  0  0  0  0  0  0  0  0  0
    4.3946    2.9224    0.2451 Cl  0  0  0  0  0  0  0  0  0  0  0  0
    3.2592    0.4527    0.1043 C   0  0  0  0  0  0  0  0  0  0  0  0
    2.7332    0.6711    1.3784 O   0  0  0  0  0  0  0  0  0  0  0  0
  1  2  1  0
  2  3  1  0
  3  4  2  0
  4  5  1  0
  5  6  2  0
  6  7  1  0
  7  8  1  0
  8  9  2  0
  9 10  1  0
 10 11  2  0
 11 12  1  0
 12 13  2  0
 13 14  1  0
 14 15  1  0
 15 16  2  0
 15 17  2  0
 15 18  1  0
 18 19  2  0
 19 20  1  0
 20 21  2  0
 21 22  1  0
 22 23  1  0
 22 24  2  0
 24 25  1  0
  6  2  1  0
 13  8  1  0
 24 18  1  0
M  END
>  <zinc_id>  (1) 
ZINC000549719643

>  <smiles>  (1) 
Cn1cnnc1Sc1ccccc1NS(=O)(=O)c1cccc(Cl)c1O

$$$$
