ZINC000127859549
     RDKit          3D

 18 19  0  0  0  0  0  0  0  0999 V2000
    5.6331   -0.3414   -0.8307 C   0  0  0  0  0  0  0  0  0  0  0  0
    4.2108   -0.0030   -0.4100 C   0  0  0  0  0  0  0  0  0  0  0  0
    3.7913    1.2955   -0.2053 C   0  0  0  0  0  0  0  0  0  0  0  0
    2.4645    1.5895    0.1774 C   0  0  0  0  0  0  0  0  0  0  0  0
    1.5578    0.5980    0.3567 C   0  0  0  0  0  0  0  0  0  0  0  0
    0.0793    0.7432    0.6879 C   0  0  0  0  0  0  0  0  0  0  0  0
   -0.5198    0.9637   -0.6765 N   0  0  0  0  0  0  0  0  0  0  0  0
   -0.5784   -0.3474   -1.2436 C   0  0  0  0  0  0  0  0  0  0  0  0
   -1.4546   -1.3076   -0.7193 C   0  0  0  0  0  0  0  0  0  0  0  0
   -2.8920   -1.3059   -0.6682 C   0  0  0  0  0  0  0  0  0  0  0  0
   -3.6470   -0.3014    0.0030 N   0  0  0  0  0  0  0  0  0  0  0  0
   -4.0796   -0.2792    1.2823 C   0  0  0  0  0  0  0  0  0  0  0  0
   -4.8081    0.8545    1.4989 C   0  0  0  0  0  0  0  0  0  0  0  0
   -4.8090    1.5539    0.2769 C   0  0  0  0  0  0  0  0  0  0  0  0
   -4.1019    0.8263   -0.5867 N   0  0  0  0  0  0  0  0  0  0  0  0
    1.9594   -0.7484    0.1567 C   0  0  0  0  0  0  0  0  0  0  0  0
    3.2846   -1.0057   -0.2259 C   0  0  0  0  0  0  0  0  0  0  0  0
    3.9097   -2.7846   -0.5448 Br  0  0  0  0  0  0  0  0  0  0  0  0
  1  2  1  0
  2  3  2  0
  3  4  1  0
  4  5  2  0
  5  6  1  0
  6  7  1  0
  7  8  1  0
  8  9  1  0
  9 10  1  0
 10 11  1  0
 11 12  1  0
 12 13  2  0
 13 14  1  0
 14 15  2  0
  5 16  1  0
 16 17  2  0
 17 18  1  0
 17  2  1  0
 15 11  1  0
M  END
>  <zinc_id>  (1) 
ZINC000127859549

>  <smiles>  (1) 
Cc1ccc(CNCCCn2cccn2)cc1Br

$$$$
