ZINC000247398558
     RDKit          3D

 21 23  0  0  0  0  0  0  0  0999 V2000
    4.0808    0.0423    1.5348 C   0  0  0  0  0  0  0  0  0  0  0  0
    4.7870    0.0045    0.1915 C   0  0  0  0  0  0  0  0  0  0  0  0
    5.5408    1.2960   -0.0151 C   0  0  0  0  0  0  0  0  0  0  0  0
    3.8870   -0.2930   -0.8913 N   0  0  0  0  0  0  0  0  0  0  0  0
    3.3356   -1.5532   -0.7289 C   0  0  0  0  0  0  0  0  0  0  0  0
    1.7799   -1.2788   -0.2954 C   0  0  2  0  0  0  0  0  0  0  0  0
    1.3168   -0.9142   -1.8120 C   0  0  0  0  0  0  0  0  0  0  0  0
    2.1013    0.3231    0.2393 C   0  0  2  0  0  0  0  0  0  0  0  0
    0.7156    0.8908   -0.2334 N   0  0  0  0  0  0  0  0  0  0  0  0
   -0.3496    0.2899    0.4869 C   0  0  0  0  0  0  0  0  0  0  0  0
   -0.1625   -0.5762    1.3766 O   0  0  0  0  0  0  0  0  0  0  0  0
   -1.7625    0.6528    0.2295 C   0  0  0  0  0  0  0  0  0  0  0  0
   -2.0937    1.9419   -0.0915 C   0  0  0  0  0  0  0  0  0  0  0  0
   -3.4046    2.2837   -0.3345 C   0  0  0  0  0  0  0  0  0  0  0  0
   -4.4013    1.3195   -0.2554 C   0  0  0  0  0  0  0  0  0  0  0  0
   -4.0949    0.0065    0.0674 C   0  0  0  0  0  0  0  0  0  0  0  0
   -4.8325   -1.1490    0.2218 C   0  0  0  0  0  0  0  0  0  0  0  0
   -3.9045   -2.1167    0.5509 C   0  0  0  0  0  0  0  0  0  0  0  0
   -2.6694   -1.6012    0.5989 N   0  0  0  0  0  0  0  0  0  0  0  0
   -2.7679   -0.2784    0.3006 C   0  0  0  0  0  0  0  0  0  0  0  0
    2.8985    0.7094   -1.1408 C   0  0  0  0  0  0  0  0  0  0  0  0
  1  2  1  0
  2  3  1  0
  2  4  1  0
  4  5  1  0
  5  6  1  0
  6  7  1  6
  6  8  1  0
  8  9  1  6
  9 10  1  0
 10 11  2  0
 10 12  1  0
 12 13  2  0
 13 14  1  0
 14 15  2  0
 15 16  1  0
 16 17  1  0
 17 18  2  0
 18 19  1  0
 19 20  1  0
  8 21  1  0
 21  4  1  0
 20 12  1  0
 20 16  2  0
M  END
>  <zinc_id>  (1) 
ZINC000247398558

>  <smiles>  (1) 
CC(C)N1C[C@H](C)[C@H](NC(=O)c2cccc3cc[nH]c23)C1

$$$$
