
##########                                Name:      JRZ_A1203_3NY8
##########                    Molecular_Weight:             278.415
##########                DOCK_Rotatable_Bonds:                   7
##########                       Formal_Charge:                   1
##########                     HBond_Acceptors:                   3
##########                        HBond_Donors:                   3
##########                         Heavy_Atoms:                  20
##########                            HA_RMSDs:               0.755
##########                            HA_RMSDh:               0.755
##########                            HA_RMSDm:               0.754
##########                          Grid_Score:          -94.572906
##########                     Grid_vdw_energy:          -30.668650
##########                      Grid_es_energy:          -63.904259
##########           Internal_energy_repulsive:           13.825824

@<TRIPOS>MOLECULE
JRZ_A1203_3NY8
 48 49 1 0 0
SMALL
USER_CHARGES


@<TRIPOS>ATOM
      1 C1          0.4500    0.5621   48.1456 C.3     1  <0>        -0.0394
      2 C2          4.1147    8.6772   56.2000 C.3     1  <0>        -0.0219
      3 C3          2.0791    9.6873   55.2432 C.3     1  <0>        -0.0219
      4 C4          1.4299    7.3695   53.0750 C.3     1  <0>        -0.0191
      5 C5          1.0613    2.9837   48.4584 C.ar    1  <0>        -0.0561
      6 C6          1.5972    4.0272   49.2117 C.ar    1  <0>        -0.0311
      7 C7          1.9506    0.5566   52.3752 C.3     1  <0>        -0.0450
      8 C8          1.7395    0.0779   50.9635 C.3     1  <0>        -0.0268
      9 C9          2.6969    1.8717   52.3041 C.3     1  <0>        -0.0247
     10 C10         2.7688    6.1805   50.7630 C.3     1  <0>         0.0854
     11 C11         1.0750    1.6867   48.9591 C.ar    1  <0>        -0.0469
     12 C12         2.1480    3.7685   50.4760 C.ar    1  <0>         0.0797
     13 C13         1.6411    1.4101   50.1968 C.ar    1  <0>        -0.0388
     14 C14         2.1914    2.4505   50.9588 C.ar    1  <0>        -0.0140
     15 C15         2.9710    8.4500   55.2225 C.3     1  <0>        -0.0281
     16 C16         2.9331    7.1413   53.1617 C.3     1  <0>         0.0034
     17 C17         3.5732    7.0797   51.7423 C.3     1  <0>         0.1209
     18 N1          3.5191    8.2621   53.8913 N.4     1  <0>         0.2326
     19 O1          3.6694    8.3757   51.1942 O.3     1  <0>        -0.3839
     20 O2          2.7347    4.8315   51.2428 O.3     1  <0>        -0.3417
     21 H1          1.2116    0.1174   47.4882 H       1  <0>         0.0278
     22 H2          0.0583   -0.2084   48.8260 H       1  <0>         0.0278
     23 H3         -0.3716    0.9643   47.5349 H       1  <0>         0.0278
     24 H4          4.7745    7.7971   56.2041 H       1  <0>         0.0284
     25 H5          4.6885    9.5640   55.8930 H       1  <0>         0.0284
     26 H6          3.7080    8.8350   57.2098 H       1  <0>         0.0284
     27 H7          1.2422    9.5483   54.5430 H       1  <0>         0.0284
     28 H8          1.6856    9.8385   56.2592 H       1  <0>         0.0284
     29 H9          2.6663   10.5675   54.9425 H       1  <0>         0.0284
     30 H10         1.0054    7.4086   54.0890 H       1  <0>         0.0285
     31 H11         1.2328    8.3203   52.5582 H       1  <0>         0.0285
     32 H12         0.9657    6.5444   52.5149 H       1  <0>         0.0285
     33 H13         0.6355    3.1829   47.4860 H       1  <0>         0.0621
     34 H14         1.5885    5.0345   48.8223 H       1  <0>         0.0643
     35 H15         0.9814    0.6981   52.8756 H       1  <0>         0.0272
     36 H16         2.5377   -0.1816   52.9412 H       1  <0>         0.0272
     37 H17         2.5726   -0.5459   50.6073 H       1  <0>         0.0313
     38 H18         0.8271   -0.5282   50.8623 H       1  <0>         0.0313
     39 H19         2.4591    2.5293   53.1533 H       1  <0>         0.0314
     40 H20         3.7877    1.7297   52.3100 H       1  <0>         0.0314
     41 H21         1.7403    6.5622   50.6830 H       1  <0>         0.0593
     42 H22         3.2505    6.2009   49.7743 H       1  <0>         0.0593
     43 H23         2.3879    7.5601   55.5019 H       1  <0>         0.0845
     44 H24         3.1236    6.1853   53.6714 H       1  <0>         0.0874
     45 H25         4.5729    6.6384   51.8678 H       1  <0>         0.0673
     46 H26         3.3485    9.0958   53.3662 H       1  <0>         0.2020
     47 H27         4.5004    8.0925   53.9822 H       1  <0>         0.2020
     48 H28         4.1326    8.9425   51.7996 H       1  <0>         0.2101
@<TRIPOS>BOND
     1     1    11    1
     2     2    15    1
     3     3    15    1
     4     4    16    1
     5     5     6   ar
     6     5    11   ar
     7     6    12   ar
     8     7     8    1
     9     7     9    1
    10     8    13    1
    11     9    14    1
    12    10    17    1
    13    10    20    1
    14    11    13   ar
    15    12    14   ar
    16    12    20    1
    17    13    14   ar
    18    15    18    1
    19    16    17    1
    20    16    18    1
    21    17    19    1
    22     1    21    1
    23     1    22    1
    24     1    23    1
    25     2    24    1
    26     2    25    1
    27     2    26    1
    28     3    27    1
    29     3    28    1
    30     3    29    1
    31     4    30    1
    32     4    31    1
    33     4    32    1
    34     5    33    1
    35     6    34    1
    36     7    35    1
    37     7    36    1
    38     8    37    1
    39     8    38    1
    40     9    39    1
    41     9    40    1
    42    10    41    1
    43    10    42    1
    44    15    43    1
    45    16    44    1
    46    17    45    1
    47    18    46    1
    48    18    47    1
    49    19    48    1
@<TRIPOS>SUBSTRUCTURE
     1 <0>         1 TEMP              0 ****  ****    0 ROOT

