
##########                                Name:      JRZ_A1203_3NY8
##########                    Molecular_Weight:             278.415
##########                DOCK_Rotatable_Bonds:                   7
##########                       Formal_Charge:                   1
##########                     HBond_Acceptors:                   3
##########                        HBond_Donors:                   3
##########                         Heavy_Atoms:                  20
##########                            HA_RMSDs:               0.462
##########                            HA_RMSDh:               0.462
##########                            HA_RMSDm:               0.462
##########                          Grid_Score:          -85.557915
##########                     Grid_vdw_energy:          -19.972597
##########                      Grid_es_energy:          -65.585320
##########           Internal_energy_repulsive:           15.139182

@<TRIPOS>MOLECULE
JRZ_A1203_3NY8
 48 49 1 0 0
SMALL
USER_CHARGES


@<TRIPOS>ATOM
      1 C1         -0.1408    0.7298   48.5521 C.3     1  <0>        -0.0394
      2 C2          3.9635    8.5718   55.8337 C.3     1  <0>        -0.0219
      3 C3          1.6991    9.1326   55.0351 C.3     1  <0>        -0.0219
      4 C4          1.5088    7.0274   52.5040 C.3     1  <0>        -0.0191
      5 C5          1.0448    2.9325   48.2720 C.ar    1  <0>        -0.0561
      6 C6          1.8793    3.9459   48.7412 C.ar    1  <0>        -0.0311
      7 C7          1.7196    1.2546   52.6023 C.3     1  <0>        -0.0450
      8 C8          1.2672    0.5534   51.3493 C.3     1  <0>        -0.0268
      9 C9          2.7411    2.2963   52.1987 C.3     1  <0>        -0.0247
     10 C10         3.1107    6.2471   50.2516 C.3     1  <0>         0.0854
     11 C11         0.8046    1.8106   49.0573 C.ar    1  <0>        -0.0469
     12 C12         2.4744    3.8344   50.0068 C.ar    1  <0>         0.0797
     13 C13         1.4079    1.6727   50.3008 C.ar    1  <0>        -0.0388
     14 C14         2.2564    2.6816   50.7784 C.ar    1  <0>        -0.0140
     15 C15         2.8553    8.1497   54.8804 C.3     1  <0>        -0.0281
     16 C16         3.0164    7.0248   52.7194 C.3     1  <0>         0.0034
     17 C17         3.7765    7.1068   51.3616 C.3     1  <0>         0.1209
     18 N1          3.3606    8.1963   53.5202 N.4     1  <0>         0.2326
     19 O1          3.8440    8.4449   50.9207 O.3     1  <0>        -0.3839
     20 O2          3.3640    4.8566   50.4825 O.3     1  <0>        -0.3417
     21 H1          0.4290   -0.0201   47.9838 H       1  <0>         0.0278
     22 H2         -0.6334    0.2446   49.4077 H       1  <0>         0.0278
     23 H3         -0.9014    1.1837   47.9000 H       1  <0>         0.0278
     24 H4          4.8115    7.8773   55.7415 H       1  <0>         0.0284
     25 H5          4.2948    9.5902   55.5826 H       1  <0>         0.0284
     26 H6          3.5853    8.5534   56.8665 H       1  <0>         0.0284
     27 H7          0.8825    8.8490   54.3549 H       1  <0>         0.0284
     28 H8          1.3357    9.1105   56.0731 H       1  <0>         0.0284
     29 H9          2.0453   10.1474   54.7892 H       1  <0>         0.0284
     30 H10         0.9989    6.9688   53.4768 H       1  <0>         0.0285
     31 H11         1.2136    7.9543   51.9906 H       1  <0>         0.0285
     32 H12         1.2251    6.1609   51.8887 H       1  <0>         0.0285
     33 H13         0.5849    3.0189   47.2985 H       1  <0>         0.0621
     34 H14         2.0677    4.8165   48.1306 H       1  <0>         0.0643
     35 H15         0.8631    1.7362   53.0967 H       1  <0>         0.0272
     36 H16         2.1707    0.5320   53.2984 H       1  <0>         0.0272
     37 H17         1.8936   -0.3192   51.1122 H       1  <0>         0.0313
     38 H18         0.2334    0.1861   51.4288 H       1  <0>         0.0313
     39 H19         2.7463    3.1580   52.8824 H       1  <0>         0.0314
     40 H20         3.7641    1.8922   52.1916 H       1  <0>         0.0314
     41 H21         2.0249    6.4234   50.2597 H       1  <0>         0.0593
     42 H22         3.5261    6.5332   49.2741 H       1  <0>         0.0593
     43 H23         2.5142    7.1281   55.1041 H       1  <0>         0.0845
     44 H24         3.3066    6.0921   53.2251 H       1  <0>         0.0874
     45 H25         4.7857    6.7085   51.5424 H       1  <0>         0.0673
     46 H26         2.9712    9.0015   53.0732 H       1  <0>         0.2020
     47 H27         4.3577    8.2593   53.5629 H       1  <0>         0.2020
     48 H28         4.3833    8.9490   51.5186 H       1  <0>         0.2101
@<TRIPOS>BOND
     1     1    11    1
     2     2    15    1
     3     3    15    1
     4     4    16    1
     5     5     6   ar
     6     5    11   ar
     7     6    12   ar
     8     7     8    1
     9     7     9    1
    10     8    13    1
    11     9    14    1
    12    10    17    1
    13    10    20    1
    14    11    13   ar
    15    12    14   ar
    16    12    20    1
    17    13    14   ar
    18    15    18    1
    19    16    17    1
    20    16    18    1
    21    17    19    1
    22     1    21    1
    23     1    22    1
    24     1    23    1
    25     2    24    1
    26     2    25    1
    27     2    26    1
    28     3    27    1
    29     3    28    1
    30     3    29    1
    31     4    30    1
    32     4    31    1
    33     4    32    1
    34     5    33    1
    35     6    34    1
    36     7    35    1
    37     7    36    1
    38     8    37    1
    39     8    38    1
    40     9    39    1
    41     9    40    1
    42    10    41    1
    43    10    42    1
    44    15    43    1
    45    16    44    1
    46    17    45    1
    47    18    46    1
    48    18    47    1
    49    19    48    1
@<TRIPOS>SUBSTRUCTURE
     1 <0>         1 TEMP              0 ****  ****    0 ROOT

