
##########                                Name:      JRZ_A1203_3NY8
##########                    Molecular_Weight:             278.415
##########                DOCK_Rotatable_Bonds:                   7
##########                       Formal_Charge:                   1
##########                     HBond_Acceptors:                   3
##########                        HBond_Donors:                   3
##########                         Heavy_Atoms:                  20
##########                            HA_RMSDs:               9.135
##########                            HA_RMSDh:               7.289
##########                            HA_RMSDm:               6.108
##########                          Grid_Score:          -93.427032
##########                     Grid_vdw_energy:          -31.683514
##########                      Grid_es_energy:          -61.743519
##########           Internal_energy_repulsive:           13.979636

@<TRIPOS>MOLECULE
JRZ_A1203_3NY8
 48 49 1 0 0
SMALL
USER_CHARGES


@<TRIPOS>ATOM
      1 C1          6.6564   13.4560   56.6731 C.3     1  <0>        -0.0394
      2 C2          2.3443    3.6388   52.5178 C.3     1  <0>        -0.0219
      3 C3          2.5833    4.8431   50.3795 C.3     1  <0>        -0.0219
      4 C4          3.2194    7.9507   51.9525 C.3     1  <0>        -0.0191
      5 C5          4.9213   12.4330   55.1636 C.ar    1  <0>        -0.0561
      6 C6          4.0504   11.4010   54.8168 C.ar    1  <0>        -0.0311
      7 C7          6.1194    9.4163   58.5528 C.3     1  <0>        -0.0450
      8 C8          6.3111   10.9072   58.4680 C.3     1  <0>        -0.0268
      9 C9          4.7917    9.0895   57.9032 C.3     1  <0>        -0.0247
     10 C10         2.0689    9.3534   54.2461 C.3     1  <0>         0.0854
     11 C11         5.6786   12.3422   56.3260 C.ar    1  <0>        -0.0469
     12 C12         3.9406   10.2700   55.6397 C.ar    1  <0>         0.0797
     13 C13         5.5611   11.2416   57.1651 C.ar    1  <0>        -0.0388
     14 C14         4.6813   10.2023   56.8308 C.ar    1  <0>        -0.0140
     15 C15         2.7402    4.9679   51.8916 C.3     1  <0>        -0.0281
     16 C16         2.5547    7.1153   53.0385 C.3     1  <0>         0.0034
     17 C17         1.5172    7.9592   53.8382 C.3     1  <0>         0.1209
     18 N1          1.8581    6.0063   52.3928 N.4     1  <0>         0.2326
     19 O1          0.3443    8.1399   53.0760 O.3     1  <0>        -0.3839
     20 O2          3.0194    9.2191   55.3088 O.3     1  <0>        -0.3417
     21 H1          6.1469   14.2139   57.2864 H       1  <0>         0.0278
     22 H2          7.5034   13.0377   57.2366 H       1  <0>         0.0278
     23 H3          7.0256   13.9214   55.7473 H       1  <0>         0.0278
     24 H4          2.4488    3.7023   53.6109 H       1  <0>         0.0284
     25 H5          1.2991    3.4102   52.2622 H       1  <0>         0.0284
     26 H6          2.9986    2.8428   52.1327 H       1  <0>         0.0284
     27 H7          2.8640    5.7932   49.9016 H       1  <0>         0.0284
     28 H8          3.2360    4.0392   50.0083 H       1  <0>         0.0284
     29 H9          1.5365    4.6065   50.1379 H       1  <0>         0.0284
     30 H10         3.9451    7.3312   51.4052 H       1  <0>         0.0285
     31 H11         2.4539    8.3210   51.2548 H       1  <0>         0.0285
     32 H12         3.7393    8.8037   52.4130 H       1  <0>         0.0285
     33 H13         5.0075   13.3030   54.5293 H       1  <0>         0.0621
     34 H14         3.4605   11.4722   53.9150 H       1  <0>         0.0643
     35 H15         6.9355    8.8993   58.0268 H       1  <0>         0.0272
     36 H16         6.1154    9.0946   59.6047 H       1  <0>         0.0272
     37 H17         5.8873   11.4307   59.3376 H       1  <0>         0.0313
     38 H18         7.3737   11.1874   58.4194 H       1  <0>         0.0313
     39 H19         4.7850    8.0835   57.4582 H       1  <0>         0.0314
     40 H20         3.9597    9.1229   58.6218 H       1  <0>         0.0314
     41 H21         2.5600    9.8165   53.3776 H       1  <0>         0.0593
     42 H22         1.2358    9.9876   54.5837 H       1  <0>         0.0593
     43 H23         3.7798    5.2249   52.1429 H       1  <0>         0.0845
     44 H24         3.3238    6.7552   53.7376 H       1  <0>         0.0874
     45 H25         1.2973    7.3969   54.7577 H       1  <0>         0.0673
     46 H26         1.3423    6.3738   51.6189 H       1  <0>         0.2020
     47 H27         1.2449    5.5927   53.0658 H       1  <0>         0.2020
     48 H28        -0.2314    7.3941   53.1982 H       1  <0>         0.2101
@<TRIPOS>BOND
     1     1    11    1
     2     2    15    1
     3     3    15    1
     4     4    16    1
     5     5     6   ar
     6     5    11   ar
     7     6    12   ar
     8     7     8    1
     9     7     9    1
    10     8    13    1
    11     9    14    1
    12    10    17    1
    13    10    20    1
    14    11    13   ar
    15    12    14   ar
    16    12    20    1
    17    13    14   ar
    18    15    18    1
    19    16    17    1
    20    16    18    1
    21    17    19    1
    22     1    21    1
    23     1    22    1
    24     1    23    1
    25     2    24    1
    26     2    25    1
    27     2    26    1
    28     3    27    1
    29     3    28    1
    30     3    29    1
    31     4    30    1
    32     4    31    1
    33     4    32    1
    34     5    33    1
    35     6    34    1
    36     7    35    1
    37     7    36    1
    38     8    37    1
    39     8    38    1
    40     9    39    1
    41     9    40    1
    42    10    41    1
    43    10    42    1
    44    15    43    1
    45    16    44    1
    46    17    45    1
    47    18    46    1
    48    18    47    1
    49    19    48    1
@<TRIPOS>SUBSTRUCTURE
     1 <0>         1 TEMP              0 ****  ****    0 ROOT

