
##########                                Name:      JRZ_A1203_3NY8
##########                    Molecular_Weight:             278.415
##########                DOCK_Rotatable_Bonds:                   7
##########                       Formal_Charge:                   1
##########                     HBond_Acceptors:                   3
##########                        HBond_Donors:                   3
##########                         Heavy_Atoms:                  20
##########                            HA_RMSDs:               0.596
##########                            HA_RMSDh:               0.596
##########                            HA_RMSDm:               0.596
##########                          Grid_Score:         -101.240387
##########                     Grid_vdw_energy:          -36.292847
##########                      Grid_es_energy:          -64.947540
##########           Internal_energy_repulsive:           12.511690

@<TRIPOS>MOLECULE
JRZ_A1203_3NY8
 48 49 1 0 0
SMALL
USER_CHARGES


@<TRIPOS>ATOM
      1 C1          0.3161    0.2980   48.5058 C.3     1  <0>        -0.0394
      2 C2          4.7779    9.2321   55.3370 C.3     1  <0>        -0.0219
      3 C3          2.3310    9.4549   55.5434 C.3     1  <0>        -0.0219
      4 C4          1.5478    6.9092   53.1349 C.3     1  <0>        -0.0191
      5 C5          1.0802    2.6951   48.5844 C.ar    1  <0>        -0.0561
      6 C6          1.6634    3.7767   49.2428 C.ar    1  <0>        -0.0311
      7 C7          1.6902    0.6493   52.7636 C.3     1  <0>        -0.0450
      8 C8          1.4881    0.0367   51.4033 C.3     1  <0>        -0.0268
      9 C9          2.5253    1.8987   52.5817 C.3     1  <0>        -0.0247
     10 C10         2.6916    6.0628   50.7322 C.3     1  <0>         0.0854
     11 C11         0.9919    1.4609   49.2185 C.ar    1  <0>        -0.0469
     12 C12         2.1587    3.6200   50.5461 C.ar    1  <0>         0.0797
     13 C13         1.5020    1.2827   50.4980 C.ar    1  <0>        -0.0388
     14 C14         2.0991    2.3614   51.1658 C.ar    1  <0>        -0.0140
     15 C15         3.4491    8.5765   54.9911 C.3     1  <0>        -0.0281
     16 C16         3.0522    7.1341   53.0616 C.3     1  <0>         0.0034
     17 C17         3.5657    7.0145   51.5953 C.3     1  <0>         0.1209
     18 N1          3.3319    8.4825   53.5471 N.4     1  <0>         0.2326
     19 O1          3.5941    8.2850   50.9835 O.3     1  <0>        -0.3839
     20 O2          2.7936    4.7193   51.2176 O.3     1  <0>        -0.3417
     21 H1          1.0646   -0.2625   47.9264 H       1  <0>         0.0278
     22 H2         -0.1463   -0.3685   49.2488 H       1  <0>         0.0278
     23 H3         -0.4586    0.6844   47.8271 H       1  <0>         0.0278
     24 H4          5.6030    8.6169   54.9489 H       1  <0>         0.0284
     25 H5          4.8220   10.2330   54.8829 H       1  <0>         0.0284
     26 H6          4.8695    9.3207   56.4296 H       1  <0>         0.0284
     27 H7          1.3571    9.0019   55.3062 H       1  <0>         0.0284
     28 H8          2.4385    9.5420   56.6347 H       1  <0>         0.0284
     29 H9          2.3911   10.4543   55.0879 H       1  <0>         0.0284
     30 H10         1.2135    6.9993   54.1790 H       1  <0>         0.0285
     31 H11         1.0342    7.6624   52.5194 H       1  <0>         0.0285
     32 H12         1.3088    5.9034   52.7590 H       1  <0>         0.0285
     33 H13         0.6970    2.8158   47.5818 H       1  <0>         0.0621
     34 H14         1.7340    4.7350   48.7497 H       1  <0>         0.0643
     35 H15         0.7187    0.9055   53.2114 H       1  <0>         0.0272
     36 H16         2.2094   -0.0601   53.4247 H       1  <0>         0.0272
     37 H17         2.2870   -0.6737   51.1447 H       1  <0>         0.0313
     38 H18         0.5401   -0.5170   51.3336 H       1  <0>         0.0313
     39 H19         2.3080    2.6573   53.3481 H       1  <0>         0.0314
     40 H20         3.6033    1.6886   52.6416 H       1  <0>         0.0314
     41 H21         1.6422    6.3880   50.7849 H       1  <0>         0.0593
     42 H22         3.0396    6.0981   49.6893 H       1  <0>         0.0593
     43 H23         3.3854    7.5677   55.4250 H       1  <0>         0.0845
     44 H24         3.5605    6.3730   53.6718 H       1  <0>         0.0874
     45 H25         4.5790    6.5902   51.6513 H       1  <0>         0.0673
     46 H26         2.5812    9.0768   53.2586 H       1  <0>         0.2020
     47 H27         4.1978    8.7818   53.1465 H       1  <0>         0.2020
     48 H28         3.7037    8.9548   51.6482 H       1  <0>         0.2101
@<TRIPOS>BOND
     1     1    11    1
     2     2    15    1
     3     3    15    1
     4     4    16    1
     5     5     6   ar
     6     5    11   ar
     7     6    12   ar
     8     7     8    1
     9     7     9    1
    10     8    13    1
    11     9    14    1
    12    10    17    1
    13    10    20    1
    14    11    13   ar
    15    12    14   ar
    16    12    20    1
    17    13    14   ar
    18    15    18    1
    19    16    17    1
    20    16    18    1
    21    17    19    1
    22     1    21    1
    23     1    22    1
    24     1    23    1
    25     2    24    1
    26     2    25    1
    27     2    26    1
    28     3    27    1
    29     3    28    1
    30     3    29    1
    31     4    30    1
    32     4    31    1
    33     4    32    1
    34     5    33    1
    35     6    34    1
    36     7    35    1
    37     7    36    1
    38     8    37    1
    39     8    38    1
    40     9    39    1
    41     9    40    1
    42    10    41    1
    43    10    42    1
    44    15    43    1
    45    16    44    1
    46    17    45    1
    47    18    46    1
    48    18    47    1
    49    19    48    1
@<TRIPOS>SUBSTRUCTURE
     1 <0>         1 TEMP              0 ****  ****    0 ROOT

