
##########                                Name:      JRZ_A1203_3NY8
##########                    Molecular_Weight:             278.415
##########                DOCK_Rotatable_Bonds:                   7
##########                       Formal_Charge:                   1
##########                     HBond_Acceptors:                   3
##########                        HBond_Donors:                   3
##########                         Heavy_Atoms:                  20
##########                            HA_RMSDs:               8.470
##########                            HA_RMSDh:               6.602
##########                            HA_RMSDm:               5.572
##########                          Grid_Score:          -86.413063
##########                     Grid_vdw_energy:          -24.826586
##########                      Grid_es_energy:          -61.586479
##########           Internal_energy_repulsive:           20.962141

@<TRIPOS>MOLECULE
JRZ_A1203_3NY8
 48 49 1 0 0
SMALL
USER_CHARGES


@<TRIPOS>ATOM
      1 C1          6.5464   12.5402   55.4110 C.3     1  <0>        -0.0394
      2 C2          2.1811    3.2669   51.5356 C.3     1  <0>        -0.0219
      3 C3          3.2603    4.9126   50.0501 C.3     1  <0>        -0.0219
      4 C4          3.0337    7.6923   51.9342 C.3     1  <0>        -0.0191
      5 C5          4.4794   11.6635   54.2730 C.ar    1  <0>        -0.0561
      6 C6          3.4356   10.7463   54.1600 C.ar    1  <0>        -0.0311
      7 C7          5.7679    8.7930   57.7548 C.3     1  <0>        -0.0450
      8 C8          6.1421   10.2270   57.4904 C.3     1  <0>        -0.0268
      9 C9          4.3247    8.6133   57.3346 C.3     1  <0>        -0.0247
     10 C10         1.3051    8.7893   53.9039 C.3     1  <0>         0.0854
     11 C11         5.3869   11.5581   55.3211 C.ar    1  <0>        -0.0469
     12 C12         3.3027    9.7157   55.1027 C.ar    1  <0>         0.0797
     13 C13         5.2530   10.5600   56.2776 C.ar    1  <0>        -0.0388
     14 C14         4.2013    9.6379   56.1790 C.ar    1  <0>        -0.0140
     15 C15         2.7908    4.6598   51.4793 C.3     1  <0>        -0.0281
     16 C16         2.2514    6.6728   52.7514 C.3     1  <0>         0.0034
     17 C17         1.0203    7.3336   53.4411 C.3     1  <0>         0.1209
     18 N1          1.7768    5.6332   51.8425 N.4     1  <0>         0.2326
     19 O1         -0.0834    7.3438   52.5630 O.3     1  <0>        -0.3839
     20 O2          2.2095    8.7887   55.0144 O.3     1  <0>        -0.3417
     21 H1          6.2430   13.4129   56.0078 H       1  <0>         0.0278
     22 H2          7.4061   12.0493   55.8906 H       1  <0>         0.0278
     23 H3          6.8284   12.8679   54.3996 H       1  <0>         0.0278
     24 H4          1.8337    3.0592   52.5584 H       1  <0>         0.0284
     25 H5          1.3300    3.2111   50.8410 H       1  <0>         0.0284
     26 H6          2.9387    2.5232   51.2478 H       1  <0>         0.0284
     27 H7          3.7064    5.9158   49.9822 H       1  <0>         0.0284
     28 H8          4.0109    4.1582   49.7720 H       1  <0>         0.0284
     29 H9          2.4020    4.8460   49.3653 H       1  <0>         0.0284
     30 H10         3.8950    7.1994   51.4596 H       1  <0>         0.0285
     31 H11         2.3813    8.1178   51.1575 H       1  <0>         0.0285
     32 H12         3.3898    8.4962   52.5951 H       1  <0>         0.0285
     33 H13         4.5832   12.4559   53.5464 H       1  <0>         0.0621
     34 H14         2.7294   10.8292   53.3472 H       1  <0>         0.0643
     35 H15         6.4171    8.1196   57.1761 H       1  <0>         0.0272
     36 H16         5.8820    8.5633   58.8245 H       1  <0>         0.0272
     37 H17         5.9304   10.8774   58.3519 H       1  <0>         0.0313
     38 H18         7.2126   10.3423   57.2648 H       1  <0>         0.0313
     39 H19         4.1153    7.5860   57.0013 H       1  <0>         0.0314
     40 H20         3.6246    8.8283   58.1552 H       1  <0>         0.0314
     41 H21         1.7537    9.3523   53.0722 H       1  <0>         0.0593
     42 H22         0.3603    9.2642   54.2070 H       1  <0>         0.0593
     43 H23         3.6385    4.7447   52.1752 H       1  <0>         0.0845
     44 H24         2.9062    6.2573   53.5314 H       1  <0>         0.0874
     45 H25         0.7984    6.7292   54.3330 H       1  <0>         0.0673
     46 H26         1.4598    6.0767   51.0041 H       1  <0>         0.2020
     47 H27         1.0286    5.1465   52.2933 H       1  <0>         0.2020
     48 H28        -0.2574    6.4596   52.2620 H       1  <0>         0.2101
@<TRIPOS>BOND
     1     1    11    1
     2     2    15    1
     3     3    15    1
     4     4    16    1
     5     5     6   ar
     6     5    11   ar
     7     6    12   ar
     8     7     8    1
     9     7     9    1
    10     8    13    1
    11     9    14    1
    12    10    17    1
    13    10    20    1
    14    11    13   ar
    15    12    14   ar
    16    12    20    1
    17    13    14   ar
    18    15    18    1
    19    16    17    1
    20    16    18    1
    21    17    19    1
    22     1    21    1
    23     1    22    1
    24     1    23    1
    25     2    24    1
    26     2    25    1
    27     2    26    1
    28     3    27    1
    29     3    28    1
    30     3    29    1
    31     4    30    1
    32     4    31    1
    33     4    32    1
    34     5    33    1
    35     6    34    1
    36     7    35    1
    37     7    36    1
    38     8    37    1
    39     8    38    1
    40     9    39    1
    41     9    40    1
    42    10    41    1
    43    10    42    1
    44    15    43    1
    45    16    44    1
    46    17    45    1
    47    18    46    1
    48    18    47    1
    49    19    48    1
@<TRIPOS>SUBSTRUCTURE
     1 <0>         1 TEMP              0 ****  ****    0 ROOT

