
##########                                Name:      JRZ_A1203_3NY8
##########                    Molecular_Weight:             278.415
##########                DOCK_Rotatable_Bonds:                   7
##########                       Formal_Charge:                   1
##########                     HBond_Acceptors:                   3
##########                        HBond_Donors:                   3
##########                         Heavy_Atoms:                  20
##########                            HA_RMSDs:               0.532
##########                            HA_RMSDh:               0.532
##########                            HA_RMSDm:               0.532
##########                          Grid_Score:         -101.967216
##########                     Grid_vdw_energy:          -34.621506
##########                      Grid_es_energy:          -67.345711
##########           Internal_energy_repulsive:           13.460205

@<TRIPOS>MOLECULE
JRZ_A1203_3NY8
 48 49 1 0 0
SMALL
USER_CHARGES


@<TRIPOS>ATOM
      1 C1          0.0931    0.5755   48.6515 C.3     1  <0>        -0.0394
      2 C2          4.2608    9.9631   54.8596 C.3     1  <0>        -0.0219
      3 C3          1.9080    9.3559   55.2785 C.3     1  <0>        -0.0219
      4 C4          1.5519    6.8715   52.6421 C.3     1  <0>        -0.0191
      5 C5          1.0899    2.8833   48.5237 C.ar    1  <0>        -0.0561
      6 C6          1.8226    3.9362   49.0699 C.ar    1  <0>        -0.0311
      7 C7          1.8072    1.0284   52.7743 C.3     1  <0>        -0.0450
      8 C8          1.4461    0.3628   51.4731 C.3     1  <0>        -0.0268
      9 C9          2.7438    2.1743   52.4560 C.3     1  <0>        -0.0247
     10 C10         3.0609    6.2203   50.4353 C.3     1  <0>         0.0854
     11 C11         0.9296    1.7027   49.2404 C.ar    1  <0>        -0.0469
     12 C12         2.3957    3.8048   50.3438 C.ar    1  <0>         0.0797
     13 C13         1.5136    1.5471   50.4909 C.ar    1  <0>        -0.0388
     14 C14         2.2605    2.5961   51.0457 C.ar    1  <0>        -0.0140
     15 C15         3.2094    8.8862   54.6362 C.3     1  <0>        -0.0281
     16 C16         3.0037    7.3091   52.7837 C.3     1  <0>         0.0034
     17 C17         3.7585    7.1938   51.4254 C.3     1  <0>         0.1209
     18 N1          3.0154    8.7060   53.2088 N.4     1  <0>         0.2326
     19 O1          3.8642    8.4619   50.8172 O.3     1  <0>        -0.3839
     20 O2          3.1823    4.8706   50.8985 O.3     1  <0>        -0.3417
     21 H1          0.7386   -0.0901   48.0596 H       1  <0>         0.0278
     22 H2         -0.3753    0.0029   49.4656 H       1  <0>         0.0278
     23 H3         -0.6886    0.9990   48.0038 H       1  <0>         0.0278
     24 H4          5.2115    9.6482   54.4047 H       1  <0>         0.0284
     25 H5          3.9266   10.9032   54.3965 H       1  <0>         0.0284
     26 H6          4.4043   10.1168   55.9393 H       1  <0>         0.0284
     27 H7          1.1294    8.5930   55.1308 H       1  <0>         0.0284
     28 H8          2.0669    9.5136   56.3555 H       1  <0>         0.0284
     29 H9          1.5893   10.3000   54.8126 H       1  <0>         0.0284
     30 H10         1.0444    6.9631   53.6138 H       1  <0>         0.0285
     31 H11         1.0468    7.5109   51.9032 H       1  <0>         0.0285
     32 H12         1.5157    5.8245   52.3069 H       1  <0>         0.0285
     33 H13         0.6469    2.9848   47.5439 H       1  <0>         0.0621
     34 H14         1.9490    4.8526   48.5127 H       1  <0>         0.0643
     35 H15         0.9010    1.4069   53.2699 H       1  <0>         0.0272
     36 H16         2.3028    0.3090   53.4426 H       1  <0>         0.0272
     37 H17         2.1510   -0.4386   51.2068 H       1  <0>         0.0313
     38 H18         0.4464   -0.0951   51.5039 H       1  <0>         0.0313
     39 H19         2.6586    2.9936   53.1852 H       1  <0>         0.0314
     40 H20         3.7978    1.8598   52.4556 H       1  <0>         0.0314
     41 H21         1.9954    6.4827   50.3601 H       1  <0>         0.0593
     42 H22         3.5356    6.3078   49.4468 H       1  <0>         0.0593
     43 H23         3.5262    7.9312   55.0809 H       1  <0>         0.0845
     44 H24         3.5055    6.6609   53.5172 H       1  <0>         0.0874
     45 H25         4.7562    6.7909   51.6541 H       1  <0>         0.0673
     46 H26         2.1349    9.1112   52.9629 H       1  <0>         0.2020
     47 H27         3.7651    9.1671   52.7343 H       1  <0>         0.2020
     48 H28         4.3228    9.0559   51.3998 H       1  <0>         0.2101
@<TRIPOS>BOND
     1     1    11    1
     2     2    15    1
     3     3    15    1
     4     4    16    1
     5     5     6   ar
     6     5    11   ar
     7     6    12   ar
     8     7     8    1
     9     7     9    1
    10     8    13    1
    11     9    14    1
    12    10    17    1
    13    10    20    1
    14    11    13   ar
    15    12    14   ar
    16    12    20    1
    17    13    14   ar
    18    15    18    1
    19    16    17    1
    20    16    18    1
    21    17    19    1
    22     1    21    1
    23     1    22    1
    24     1    23    1
    25     2    24    1
    26     2    25    1
    27     2    26    1
    28     3    27    1
    29     3    28    1
    30     3    29    1
    31     4    30    1
    32     4    31    1
    33     4    32    1
    34     5    33    1
    35     6    34    1
    36     7    35    1
    37     7    36    1
    38     8    37    1
    39     8    38    1
    40     9    39    1
    41     9    40    1
    42    10    41    1
    43    10    42    1
    44    15    43    1
    45    16    44    1
    46    17    45    1
    47    18    46    1
    48    18    47    1
    49    19    48    1
@<TRIPOS>SUBSTRUCTURE
     1 <0>         1 TEMP              0 ****  ****    0 ROOT

