
##########                                Name:      JRZ_A1203_3NY8
##########                    Molecular_Weight:             278.415
##########                DOCK_Rotatable_Bonds:                   7
##########                       Formal_Charge:                   1
##########                     HBond_Acceptors:                   3
##########                        HBond_Donors:                   3
##########                         Heavy_Atoms:                  20
##########                            HA_RMSDs:               0.667
##########                            HA_RMSDh:               0.667
##########                            HA_RMSDm:               0.663
##########                          Grid_Score:         -100.410965
##########                     Grid_vdw_energy:          -36.165852
##########                      Grid_es_energy:          -64.245117
##########           Internal_energy_repulsive:           13.383217

@<TRIPOS>MOLECULE
JRZ_A1203_3NY8
 48 49 1 0 0
SMALL
USER_CHARGES


@<TRIPOS>ATOM
      1 C1          0.2063    0.5459   48.2185 C.3     1  <0>        -0.0394
      2 C2          4.3096    8.3750   55.6675 C.3     1  <0>        -0.0219
      3 C3          2.1267    9.5165   55.7758 C.3     1  <0>        -0.0219
      4 C4          1.1261    6.8913   52.9503 C.3     1  <0>        -0.0191
      5 C5          0.9795    2.9388   48.3288 C.ar    1  <0>        -0.0561
      6 C6          1.6253    3.9917   48.9753 C.ar    1  <0>        -0.0311
      7 C7          1.9814    0.7130   52.3370 C.3     1  <0>        -0.0450
      8 C8          1.6491    0.1602   50.9766 C.3     1  <0>        -0.0268
      9 C9          2.7981    1.9709   52.1312 C.3     1  <0>        -0.0247
     10 C10         2.6003    6.2223   50.6508 C.3     1  <0>         0.0854
     11 C11         0.9495    1.6778   48.9138 C.ar    1  <0>        -0.0469
     12 C12         2.2424    3.7791   50.2173 C.ar    1  <0>         0.0797
     13 C13         1.5791    1.4447   50.1297 C.ar    1  <0>        -0.0388
     14 C14         2.2396    2.4943   50.7840 C.ar    1  <0>        -0.0140
     15 C15         2.8661    8.3178   55.1898 C.3     1  <0>        -0.0281
     16 C16         2.6282    7.1028   53.0855 C.3     1  <0>         0.0034
     17 C17         3.3180    7.1292   51.6885 C.3     1  <0>         0.1209
     18 N1          2.8464    8.3897   53.7399 N.4     1  <0>         0.2326
     19 O1          3.3577    8.4477   51.1892 O.3     1  <0>        -0.3839
     20 O2          2.9408    4.8491   50.8727 O.3     1  <0>        -0.3417
     21 H1          0.8949    0.0129   47.5463 H       1  <0>         0.0278
     22 H2         -0.1844   -0.1535   48.9723 H       1  <0>         0.0278
     23 H3         -0.6288    0.9600   47.6345 H       1  <0>         0.0278
     24 H4          4.8662    7.5192   55.2578 H       1  <0>         0.0284
     25 H5          4.7726    9.3117   55.3238 H       1  <0>         0.0284
     26 H6          4.3338    8.3356   56.7665 H       1  <0>         0.0284
     27 H7          1.0779    9.4986   55.4447 H       1  <0>         0.0284
     28 H8          2.1652    9.4696   56.8741 H       1  <0>         0.0284
     29 H9          2.6041   10.4457   55.4314 H       1  <0>         0.0284
     30 H10         0.6660    6.8770   53.9494 H       1  <0>         0.0285
     31 H11         0.6923    7.7110   52.3589 H       1  <0>         0.0285
     32 H12         0.9349    5.9332   52.4450 H       1  <0>         0.0285
     33 H13         0.5027    3.1025   47.3737 H       1  <0>         0.0621
     34 H14         1.6505    4.9708   48.5203 H       1  <0>         0.0643
     35 H15         1.0577    0.9472   52.8863 H       1  <0>         0.0272
     36 H16         2.5600   -0.0237   52.9137 H       1  <0>         0.0272
     37 H17         2.4182   -0.5366   50.6120 H       1  <0>         0.0313
     38 H18         0.6976   -0.3919   50.9735 H       1  <0>         0.0313
     39 H19         2.6565    2.6947   52.9473 H       1  <0>         0.0314
     40 H20         3.8764    1.7605   52.0786 H       1  <0>         0.0314
     41 H21         1.5121    6.3465   50.7530 H       1  <0>         0.0593
     42 H22         2.9138    6.5137   49.6374 H       1  <0>         0.0593
     43 H23         2.3838    7.3831   55.5116 H       1  <0>         0.0845
     44 H24         3.0573    6.2758   53.6702 H       1  <0>         0.0874
     45 H25         4.3368    6.7408   51.8343 H       1  <0>         0.0673
     46 H26         2.1039    9.0031   53.4709 H       1  <0>         0.2020
     47 H27         3.7303    8.7450   53.4360 H       1  <0>         0.2020
     48 H28         4.0228    8.9427   51.6531 H       1  <0>         0.2101
@<TRIPOS>BOND
     1     1    11    1
     2     2    15    1
     3     3    15    1
     4     4    16    1
     5     5     6   ar
     6     5    11   ar
     7     6    12   ar
     8     7     8    1
     9     7     9    1
    10     8    13    1
    11     9    14    1
    12    10    17    1
    13    10    20    1
    14    11    13   ar
    15    12    14   ar
    16    12    20    1
    17    13    14   ar
    18    15    18    1
    19    16    17    1
    20    16    18    1
    21    17    19    1
    22     1    21    1
    23     1    22    1
    24     1    23    1
    25     2    24    1
    26     2    25    1
    27     2    26    1
    28     3    27    1
    29     3    28    1
    30     3    29    1
    31     4    30    1
    32     4    31    1
    33     4    32    1
    34     5    33    1
    35     6    34    1
    36     7    35    1
    37     7    36    1
    38     8    37    1
    39     8    38    1
    40     9    39    1
    41     9    40    1
    42    10    41    1
    43    10    42    1
    44    15    43    1
    45    16    44    1
    46    17    45    1
    47    18    46    1
    48    18    47    1
    49    19    48    1
@<TRIPOS>SUBSTRUCTURE
     1 <0>         1 TEMP              0 ****  ****    0 ROOT

