
##########                                Name:      JRZ_A1203_3NY8
##########                    Molecular_Weight:             278.415
##########                DOCK_Rotatable_Bonds:                   7
##########                       Formal_Charge:                   1
##########                     HBond_Acceptors:                   3
##########                        HBond_Donors:                   3
##########                         Heavy_Atoms:                  20
##########                            HA_RMSDs:               0.463
##########                            HA_RMSDh:               0.463
##########                            HA_RMSDm:               0.463
##########                          Grid_Score:          -97.971848
##########                     Grid_vdw_energy:          -32.409767
##########                      Grid_es_energy:          -65.562080
##########           Internal_energy_repulsive:           11.907784

@<TRIPOS>MOLECULE
JRZ_A1203_3NY8
 48 49 1 0 0
SMALL
USER_CHARGES


@<TRIPOS>ATOM
      1 C1         -0.0195    0.5508   48.6483 C.3     1  <0>        -0.0394
      2 C2          4.0560    8.9322   55.6454 C.3     1  <0>        -0.0219
      3 C3          1.6617    9.2767   55.1680 C.3     1  <0>        -0.0219
      4 C4          1.5047    6.8167   52.6235 C.3     1  <0>        -0.0191
      5 C5          0.9954    2.8531   48.5735 C.ar    1  <0>        -0.0561
      6 C6          1.7524    3.8799   49.1357 C.ar    1  <0>        -0.0311
      7 C7          1.8087    0.8450   52.7363 C.3     1  <0>        -0.0450
      8 C8          1.4066    0.2283   51.4231 C.3     1  <0>        -0.0268
      9 C9          2.7473    1.9932   52.4326 C.3     1  <0>        -0.0247
     10 C10         3.1502    6.0773   50.4501 C.3     1  <0>         0.0854
     11 C11         0.8431    1.6497   49.2529 C.ar    1  <0>        -0.0469
     12 C12         2.3582    3.6993   50.3883 C.ar    1  <0>         0.0797
     13 C13         1.4590    1.4456   50.4810 C.ar    1  <0>        -0.0388
     14 C14         2.2304    2.4681   51.0513 C.ar    1  <0>        -0.0140
     15 C15         2.8577    8.3701   54.8950 C.3     1  <0>        -0.0281
     16 C16         2.9928    7.0551   52.8424 C.3     1  <0>         0.0034
     17 C17         3.7650    7.0558   51.4889 C.3     1  <0>         0.1209
     18 N1          3.1533    8.3619   53.4737 N.4     1  <0>         0.2326
     19 O1          3.7802    8.3536   50.9370 O.3     1  <0>        -0.3839
     20 O2          3.1695    4.7384   50.9580 O.3     1  <0>        -0.3417
     21 H1          0.6035   -0.0992   48.0164 H       1  <0>         0.0278
     22 H2         -0.4713   -0.0458   49.4544 H       1  <0>         0.0278
     23 H3         -0.8143    1.0033   48.0371 H       1  <0>         0.0278
     24 H4          4.9343    8.2950   55.4648 H       1  <0>         0.0284
     25 H5          4.2645    9.9525   55.2913 H       1  <0>         0.0284
     26 H6          3.8357    8.9557   56.7229 H       1  <0>         0.0284
     27 H7          0.7797    8.8913   54.6355 H       1  <0>         0.0284
     28 H8          1.4570    9.2980   56.2486 H       1  <0>         0.0284
     29 H9          1.8859   10.2949   54.8170 H       1  <0>         0.0284
     30 H10         0.9856    6.8213   53.5933 H       1  <0>         0.0285
     31 H11         1.0958    7.6138   51.9853 H       1  <0>         0.0285
     32 H12         1.3576    5.8429   52.1337 H       1  <0>         0.0285
     33 H13         0.5272    2.9925   47.6102 H       1  <0>         0.0621
     34 H14         1.8725    4.8141   48.6074 H       1  <0>         0.0643
     35 H15         0.9199    1.2137   53.2691 H       1  <0>         0.0272
     36 H16         2.3153    0.0985   53.3656 H       1  <0>         0.0272
     37 H17         2.0964   -0.5694   51.1102 H       1  <0>         0.0313
     38 H18         0.4038   -0.2218   51.4651 H       1  <0>         0.0313
     39 H19         2.6895    2.7873   53.1917 H       1  <0>         0.0314
     40 H20         3.7979    1.6699   52.3927 H       1  <0>         0.0314
     41 H21         2.1102    6.3722   50.2465 H       1  <0>         0.0593
     42 H22         3.7372    6.1203   49.5208 H       1  <0>         0.0593
     43 H23         2.6358    7.3441   55.2237 H       1  <0>         0.0845
     44 H24         3.3975    6.2505   53.4738 H       1  <0>         0.0874
     45 H25         4.7882    6.7187   51.7113 H       1  <0>         0.0673
     46 H26         2.5290    9.0009   53.0244 H       1  <0>         0.2020
     47 H27         4.1038    8.6483   53.3540 H       1  <0>         0.2020
     48 H28         4.1501    8.9616   51.5664 H       1  <0>         0.2101
@<TRIPOS>BOND
     1     1    11    1
     2     2    15    1
     3     3    15    1
     4     4    16    1
     5     5     6   ar
     6     5    11   ar
     7     6    12   ar
     8     7     8    1
     9     7     9    1
    10     8    13    1
    11     9    14    1
    12    10    17    1
    13    10    20    1
    14    11    13   ar
    15    12    14   ar
    16    12    20    1
    17    13    14   ar
    18    15    18    1
    19    16    17    1
    20    16    18    1
    21    17    19    1
    22     1    21    1
    23     1    22    1
    24     1    23    1
    25     2    24    1
    26     2    25    1
    27     2    26    1
    28     3    27    1
    29     3    28    1
    30     3    29    1
    31     4    30    1
    32     4    31    1
    33     4    32    1
    34     5    33    1
    35     6    34    1
    36     7    35    1
    37     7    36    1
    38     8    37    1
    39     8    38    1
    40     9    39    1
    41     9    40    1
    42    10    41    1
    43    10    42    1
    44    15    43    1
    45    16    44    1
    46    17    45    1
    47    18    46    1
    48    18    47    1
    49    19    48    1
@<TRIPOS>SUBSTRUCTURE
     1 <0>         1 TEMP              0 ****  ****    0 ROOT

