
##########                                Name:      JRZ_A1203_3NY8
##########                    Molecular_Weight:             278.415
##########                DOCK_Rotatable_Bonds:                   7
##########                       Formal_Charge:                   1
##########                     HBond_Acceptors:                   3
##########                        HBond_Donors:                   3
##########                         Heavy_Atoms:                  20
##########                            HA_RMSDs:               0.735
##########                            HA_RMSDh:               0.735
##########                            HA_RMSDm:               0.721
##########                          Grid_Score:          -98.840622
##########                     Grid_vdw_energy:          -28.987194
##########                      Grid_es_energy:          -69.853424
##########           Internal_energy_repulsive:           18.624214

@<TRIPOS>MOLECULE
JRZ_A1203_3NY8
 48 49 1 0 0
SMALL
USER_CHARGES


@<TRIPOS>ATOM
      1 C1          0.2590    0.2470   48.7497 C.3     1  <0>        -0.0394
      2 C2          3.5717   10.1757   54.7275 C.3     1  <0>        -0.0219
      3 C3          1.2320    9.6666   54.1392 C.3     1  <0>        -0.0219
      4 C4          1.9016    6.6866   52.7965 C.3     1  <0>        -0.0191
      5 C5          1.2491    2.5325   48.3862 C.ar    1  <0>        -0.0561
      6 C6          1.9470    3.6534   48.8335 C.ar    1  <0>        -0.0311
      7 C7          1.7544    1.2282   52.8657 C.3     1  <0>        -0.0450
      8 C8          1.4648    0.4020   51.6410 C.3     1  <0>        -0.0268
      9 C9          2.7003    2.3365   52.4552 C.3     1  <0>        -0.0247
     10 C10         2.8079    6.1653   50.2937 C.3     1  <0>         0.0854
     11 C11         1.0579    1.4483   49.2353 C.ar    1  <0>        -0.0469
     12 C12         2.4539    3.6880   50.1413 C.ar    1  <0>         0.0797
     13 C13         1.5771    1.4559   50.5235 C.ar    1  <0>        -0.0388
     14 C14         2.2887    2.5743   50.9806 C.ar    1  <0>        -0.0140
     15 C15         2.6512    9.1076   54.1558 C.3     1  <0>        -0.0281
     16 C16         3.2391    7.3700   52.5446 C.3     1  <0>         0.0034
     17 C17         3.6966    7.1782   51.0674 C.3     1  <0>         0.1209
     18 N1          3.0727    8.7977   52.8017 N.4     1  <0>         0.2326
     19 O1          3.6763    8.4132   50.3865 O.3     1  <0>        -0.3839
     20 O2          3.2051    4.8234   50.5982 O.3     1  <0>        -0.3417
     21 H1          0.9378   -0.4794   48.2790 H       1  <0>         0.0278
     22 H2         -0.2480   -0.2255   49.6039 H       1  <0>         0.0278
     23 H3         -0.4903    0.5777   48.0154 H       1  <0>         0.0278
     24 H4          4.6041    9.7967   54.7505 H       1  <0>         0.0284
     25 H5          3.5256   11.0753   54.0963 H       1  <0>         0.0284
     26 H6          3.2510   10.4275   55.7491 H       1  <0>         0.0284
     27 H7          0.5448    8.9118   53.7292 H       1  <0>         0.0284
     28 H8          0.9265    9.9218   55.1646 H       1  <0>         0.0284
     29 H9          1.2012   10.5697   53.5118 H       1  <0>         0.0284
     30 H10         1.6037    6.8379   53.8446 H       1  <0>         0.0285
     31 H11         1.1385    7.1187   52.1326 H       1  <0>         0.0285
     32 H12         1.9966    5.6095   52.5943 H       1  <0>         0.0285
     33 H13         0.8570    2.5064   47.3802 H       1  <0>         0.0621
     34 H14         2.0974    4.4950   48.1736 H       1  <0>         0.0643
     35 H15         0.8218    1.6548   53.2636 H       1  <0>         0.0272
     36 H16         2.2184    0.6031   53.6429 H       1  <0>         0.0272
     37 H17         2.1867   -0.4180   51.5128 H       1  <0>         0.0313
     38 H18         0.4672   -0.0600   51.6777 H       1  <0>         0.0313
     39 H19         2.5731    3.2389   53.0713 H       1  <0>         0.0314
     40 H20         3.7545    2.0366   52.5476 H       1  <0>         0.0314
     41 H21         1.7575    6.3073   50.5875 H       1  <0>         0.0593
     42 H22         2.9181    6.3389   49.2130 H       1  <0>         0.0593
     43 H23         2.6885    8.1918   54.7642 H       1  <0>         0.0845
     44 H24         3.9996    6.9279   53.2049 H       1  <0>         0.0874
     45 H25         4.7194    6.7752   51.1056 H       1  <0>         0.0673
     46 H26         2.3765    9.1457   52.1739 H       1  <0>         0.2020
     47 H27         3.9527    9.2450   52.6418 H       1  <0>         0.2020
     48 H28         3.9643    9.1033   50.9724 H       1  <0>         0.2101
@<TRIPOS>BOND
     1     1    11    1
     2     2    15    1
     3     3    15    1
     4     4    16    1
     5     5     6   ar
     6     5    11   ar
     7     6    12   ar
     8     7     8    1
     9     7     9    1
    10     8    13    1
    11     9    14    1
    12    10    17    1
    13    10    20    1
    14    11    13   ar
    15    12    14   ar
    16    12    20    1
    17    13    14   ar
    18    15    18    1
    19    16    17    1
    20    16    18    1
    21    17    19    1
    22     1    21    1
    23     1    22    1
    24     1    23    1
    25     2    24    1
    26     2    25    1
    27     2    26    1
    28     3    27    1
    29     3    28    1
    30     3    29    1
    31     4    30    1
    32     4    31    1
    33     4    32    1
    34     5    33    1
    35     6    34    1
    36     7    35    1
    37     7    36    1
    38     8    37    1
    39     8    38    1
    40     9    39    1
    41     9    40    1
    42    10    41    1
    43    10    42    1
    44    15    43    1
    45    16    44    1
    46    17    45    1
    47    18    46    1
    48    18    47    1
    49    19    48    1
@<TRIPOS>SUBSTRUCTURE
     1 <0>         1 TEMP              0 ****  ****    0 ROOT

