
##########                                Name:        AS4_201_2AA2
##########                    Molecular_Weight:              360.45
##########                DOCK_Rotatable_Bonds:                   4
##########                       Formal_Charge:        -0.000700012
##########                     HBond_Acceptors:                   5
##########                        HBond_Donors:                   2
##########                         Heavy_Atoms:                  26
##########                            HA_RMSDs:               0.423
##########                            HA_RMSDh:               0.423
##########                            HA_RMSDm:               0.423
##########                          Grid_Score:          -49.115837
##########                     Grid_vdw_energy:          -52.764275
##########                      Grid_es_energy:            3.648436
##########           Internal_energy_repulsive:           18.870825

@<TRIPOS>MOLECULE
AS4_201_2AA2
 54 58 1 0 0
SMALL
USER_CHARGES


@<TRIPOS>ATOM
      1 C1         19.3594   69.3746   20.1289 C.3     1  <0>        -0.0555
      2 C2         21.2628   74.7206   20.4283 C.3     1  <0>        -0.0486
      3 C3         20.7573   75.7601   21.4575 C.3     1  <0>        -0.0425
      4 C4         21.2054   72.2118   18.3555 C.3     1  <0>        -0.0459
      5 C5         21.3987   70.7113   17.9830 C.3     1  <0>        -0.0305
      6 C6         17.5036   68.4017   17.7870 C.3     1  <0>         0.0107
      7 C7         17.5739   69.8490   18.3051 C.3     1  <0>        -0.0366
      8 C8         17.5959   73.6323   20.6043 C.3     1  <0>        -0.0150
      9 C9         19.8231   69.1332   16.7493 C.2     1  <0>        -0.0194
     10 C10        17.0597   76.6461   22.6068 C.3     1  <0>         0.1025
     11 C11        20.2508   72.4363   19.5897 C.3     1  <0>        -0.0313
     12 C12        20.0008   73.9304   19.9663 C.3     1  <0>        -0.0268
     13 C13        19.2178   75.5625   21.4976 C.3     1  <0>         0.0304
     14 C14        17.8427   72.1093   20.4933 C.3     1  <0>         0.0662
     15 C15        18.8546   71.8161   19.2755 C.3     1  <0>        -0.0024
     16 C16        19.1606   72.9391   22.2932 C.3     1  <0>         0.1631
     17 C17        20.0440   69.9873   17.7889 C.2     1  <0>        -0.0600
     18 C18        18.4891   68.3747   16.5898 C.2     1  <0>         0.1561
     19 C19        18.4967   76.1463   22.7683 C.2     1  <0>         0.1622
     20 C20        18.9711   70.2643   18.8901 C.3     1  <0>        -0.0049
     21 C21        18.9910   74.0505   21.1881 C.3     1  <0>         0.0365
     22 O1         16.3489   76.4146   23.8259 O.3     1  <0>        -0.3875
     23 O2         18.5427   73.2628   23.5382 O.3     1  <0>        -0.3665
     24 O3         18.1955   67.7481   15.5785 O.2     1  <0>        -0.2927
     25 O4         19.0776   76.1888   23.8255 O.2     1  <0>        -0.2947
     26 O5         18.4211   71.7627   21.7789 O.3     1  <0>        -0.3474
     27 H1         20.3403   69.6898   20.5144 H       1  <0>         0.0238
     28 H2         18.6010   69.4924   20.9169 H       1  <0>         0.0238
     29 H3         19.4082   68.3196   19.8215 H       1  <0>         0.0238
     30 H4         21.7425   75.2208   19.5741 H       1  <0>         0.0268
     31 H5         21.9982   74.0441   20.8882 H       1  <0>         0.0268
     32 H6         21.2041   75.5857   22.4475 H       1  <0>         0.0272
     33 H7         21.0166   76.7827   21.1463 H       1  <0>         0.0272
     34 H8         22.1910   72.6326   18.6038 H       1  <0>         0.0271
     35 H9         20.7690   72.7267   17.4869 H       1  <0>         0.0271
     36 H10        21.9681   70.6517   17.0438 H       1  <0>         0.0310
     37 H11        21.9506   70.2148   18.7947 H       1  <0>         0.0310
     38 H12        17.8033   67.6849   18.5657 H       1  <0>         0.0345
     39 H13        16.4832   68.1416   17.4688 H       1  <0>         0.0345
     40 H14        17.3486   70.5196   17.4627 H       1  <0>         0.0278
     41 H15        16.8279   69.9565   19.1064 H       1  <0>         0.0278
     42 H16        17.3674   74.1079   19.6390 H       1  <0>         0.0297
     43 H17        16.7533   73.8901   21.2628 H       1  <0>         0.0297
     44 H18        20.6032   68.9836   16.0175 H       1  <0>         0.0652
     45 H19        17.0655   77.7226   22.3806 H       1  <0>         0.0636
     46 H20        16.5697   76.1047   21.7842 H       1  <0>         0.0636
     47 H21        20.7643   71.9602   20.4381 H       1  <0>         0.0307
     48 H22        19.6195   74.3576   19.0271 H       1  <0>         0.0311
     49 H23        18.7124   76.1763   20.7374 H       1  <0>         0.0385
     50 H24        16.9373   71.5209   20.2835 H       1  <0>         0.0600
     51 H25        18.4318   72.2994   18.3823 H       1  <0>         0.0337
     52 H26        20.2360   72.7964   22.4749 H       1  <0>         0.0913
     53 H27        16.5788   75.5593   24.1696 H       1  <0>         0.2100
     54 H28        18.5358   72.4953   24.0979 H       1  <0>         0.2125
@<TRIPOS>BOND
     1     1    20    1
     2     2     3    1
     3     2    12    1
     4     3    13    1
     5     4     5    1
     6     4    11    1
     7     5    17    1
     8     6     7    1
     9     6    18    1
    10     7    20    1
    11     8    14    1
    12     8    21    1
    13     9    17    2
    14     9    18    1
    15    10    19    1
    16    10    22    1
    17    11    12    1
    18    11    15    1
    19    12    21    1
    20    13    19    1
    21    13    21    1
    22    14    15    1
    23    14    26    1
    24    15    20    1
    25    16    21    1
    26    16    23    1
    27    16    26    1
    28    17    20    1
    29    18    24    2
    30    19    25    2
    31     1    27    1
    32     1    28    1
    33     1    29    1
    34     2    30    1
    35     2    31    1
    36     3    32    1
    37     3    33    1
    38     4    34    1
    39     4    35    1
    40     5    36    1
    41     5    37    1
    42     6    38    1
    43     6    39    1
    44     7    40    1
    45     7    41    1
    46     8    42    1
    47     8    43    1
    48     9    44    1
    49    10    45    1
    50    10    46    1
    51    11    47    1
    52    12    48    1
    53    13    49    1
    54    14    50    1
    55    15    51    1
    56    16    52    1
    57    22    53    1
    58    23    54    1
@<TRIPOS>SUBSTRUCTURE
     1 <0>         1 TEMP              0 ****  ****    0 ROOT

