
##########                                Name:        AS4_201_2AA2
##########                    Molecular_Weight:              360.45
##########                DOCK_Rotatable_Bonds:                   4
##########                       Formal_Charge:        -0.000700012
##########                     HBond_Acceptors:                   5
##########                        HBond_Donors:                   2
##########                         Heavy_Atoms:                  26
##########                            HA_RMSDs:               0.297
##########                            HA_RMSDh:               0.297
##########                            HA_RMSDm:               0.297
##########                          Grid_Score:          -48.707932
##########                     Grid_vdw_energy:          -53.150471
##########                      Grid_es_energy:            4.442537
##########           Internal_energy_repulsive:           18.875381

@<TRIPOS>MOLECULE
AS4_201_2AA2
 54 58 1 0 0
SMALL
USER_CHARGES


@<TRIPOS>ATOM
      1 C1         19.0730   69.5558   20.1649 C.3     1  <0>        -0.0555
      2 C2         20.9456   74.9144   20.4311 C.3     1  <0>        -0.0486
      3 C3         20.4918   75.9347   21.5027 C.3     1  <0>        -0.0425
      4 C4         20.7895   72.4342   18.3291 C.3     1  <0>        -0.0459
      5 C5         20.9734   70.9409   17.9244 C.3     1  <0>        -0.0305
      6 C6         17.0930   68.5986   17.9202 C.3     1  <0>         0.0107
      7 C7         17.1810   70.0391   18.4542 C.3     1  <0>        -0.0366
      8 C8         17.3042   73.7901   20.8026 C.3     1  <0>        -0.0150
      9 C9         19.3425   69.3658   16.7610 C.2     1  <0>        -0.0194
     10 C10        16.8526   76.7505   22.8813 C.3     1  <0>         0.1025
     11 C11        19.9060   72.6328   19.6194 C.3     1  <0>        -0.0313
     12 C12        19.6656   74.1191   20.0313 C.3     1  <0>        -0.0268
     13 C13        18.9588   75.7225   21.6287 C.3     1  <0>         0.0304
     14 C14        17.5570   72.2711   20.6557 C.3     1  <0>         0.0662
     15 C15        18.4991   72.0042   19.3774 C.3     1  <0>        -0.0024
     16 C16        18.9697   73.0878   22.3883 C.3     1  <0>         0.1631
     17 C17        19.6159   70.2073   17.7984 C.2     1  <0>        -0.0600
     18 C18        18.0078   68.5973   16.6679 C.2     1  <0>         0.1561
     19 C19        18.3076   76.2818   22.9471 C.2     1  <0>         0.1622
     20 C20        18.6062   70.4591   18.9635 C.3     1  <0>        -0.0049
     21 C21        18.7272   74.2129   21.3110 C.3     1  <0>         0.0365
     22 O1         16.1633   76.2867   24.0452 O.3     1  <0>        -0.3875
     23 O2         18.4222   73.3885   23.6714 O.3     1  <0>        -0.3665
     24 O3         17.6615   67.9822   15.6662 O.2     1  <0>        -0.2927
     25 O4         18.9536   76.3306   23.9655 O.2     1  <0>        -0.2947
     26 O5         18.2116   71.9119   21.9006 O.3     1  <0>        -0.3474
     27 H1         20.0718   69.8746   20.4976 H       1  <0>         0.0238
     28 H2         18.3604   69.6556   20.9969 H       1  <0>         0.0238
     29 H3         19.1127   68.5056   19.8400 H       1  <0>         0.0238
     30 H4         21.3709   75.4308   19.5580 H       1  <0>         0.0268
     31 H5         21.7120   74.2383   20.8379 H       1  <0>         0.0268
     32 H6         20.9965   75.7507   22.4626 H       1  <0>         0.0272
     33 H7         20.7240   76.9640   21.1918 H       1  <0>         0.0272
     34 H8         21.7842   72.8606   18.5262 H       1  <0>         0.0271
     35 H9         20.2992   72.9572   17.4946 H       1  <0>         0.0271
     36 H10        21.4881   70.8996   16.9532 H       1  <0>         0.0310
     37 H11        21.5755   70.4383   18.6957 H       1  <0>         0.0310
     38 H12        17.4432   67.8738   18.6699 H       1  <0>         0.0345
     39 H13        16.0582   68.3335   17.6577 H       1  <0>         0.0345
     40 H14        16.9018   70.7192   17.6360 H       1  <0>         0.0278
     41 H15        16.4817   70.1285   19.2987 H       1  <0>         0.0278
     42 H16        17.0164   74.2769   19.8591 H       1  <0>         0.0297
     43 H17        16.4990   74.0309   21.5123 H       1  <0>         0.0297
     44 H18        20.0801   69.2335   15.9834 H       1  <0>         0.0652
     45 H19        16.8190   77.8493   22.8445 H       1  <0>         0.0636
     46 H20        16.3727   76.3420   21.9797 H       1  <0>         0.0636
     47 H21        20.4716   72.1496   20.4298 H       1  <0>         0.0307
     48 H22        19.2271   74.5558   19.1220 H       1  <0>         0.0311
     49 H23        18.4052   76.3421   20.9079 H       1  <0>         0.0385
     50 H24        16.6460   71.6773   20.4899 H       1  <0>         0.0600
     51 H25        18.0214   72.4960   18.5171 H       1  <0>         0.0337
     52 H26        20.0550   72.9526   22.5055 H       1  <0>         0.0913
     53 H27        16.7771   75.8506   24.6246 H       1  <0>         0.2100
     54 H28        18.0740   72.5953   24.0614 H       1  <0>         0.2125
@<TRIPOS>BOND
     1     1    20    1
     2     2     3    1
     3     2    12    1
     4     3    13    1
     5     4     5    1
     6     4    11    1
     7     5    17    1
     8     6     7    1
     9     6    18    1
    10     7    20    1
    11     8    14    1
    12     8    21    1
    13     9    17    2
    14     9    18    1
    15    10    19    1
    16    10    22    1
    17    11    12    1
    18    11    15    1
    19    12    21    1
    20    13    19    1
    21    13    21    1
    22    14    15    1
    23    14    26    1
    24    15    20    1
    25    16    21    1
    26    16    23    1
    27    16    26    1
    28    17    20    1
    29    18    24    2
    30    19    25    2
    31     1    27    1
    32     1    28    1
    33     1    29    1
    34     2    30    1
    35     2    31    1
    36     3    32    1
    37     3    33    1
    38     4    34    1
    39     4    35    1
    40     5    36    1
    41     5    37    1
    42     6    38    1
    43     6    39    1
    44     7    40    1
    45     7    41    1
    46     8    42    1
    47     8    43    1
    48     9    44    1
    49    10    45    1
    50    10    46    1
    51    11    47    1
    52    12    48    1
    53    13    49    1
    54    14    50    1
    55    15    51    1
    56    16    52    1
    57    22    53    1
    58    23    54    1
@<TRIPOS>SUBSTRUCTURE
     1 <0>         1 TEMP              0 ****  ****    0 ROOT

