
##########                                Name:        AS4_201_2AA2
##########                    Molecular_Weight:              360.45
##########                DOCK_Rotatable_Bonds:                   4
##########                       Formal_Charge:        -0.000700012
##########                     HBond_Acceptors:                   5
##########                        HBond_Donors:                   2
##########                         Heavy_Atoms:                  26
##########                            HA_RMSDs:               0.296
##########                            HA_RMSDh:               0.296
##########                            HA_RMSDm:               0.296
##########                          Grid_Score:          -51.022110
##########                     Grid_vdw_energy:          -54.627037
##########                      Grid_es_energy:            3.604929
##########           Internal_energy_repulsive:           20.921240

@<TRIPOS>MOLECULE
AS4_201_2AA2
 54 58 1 0 0
SMALL
USER_CHARGES


@<TRIPOS>ATOM
      1 C1         19.0765   69.4966   19.9935 C.3     1  <0>        -0.0555
      2 C2         21.2660   74.7160   20.4991 C.3     1  <0>        -0.0486
      3 C3         20.8185   75.7394   21.5703 C.3     1  <0>        -0.0425
      4 C4         21.0713   72.2985   18.3284 C.3     1  <0>        -0.0459
      5 C5         21.1828   70.8058   17.8960 C.3     1  <0>        -0.0305
      6 C6         17.1686   68.7192   17.6205 C.3     1  <0>         0.0107
      7 C7         17.3174   70.1388   18.1955 C.3     1  <0>        -0.0366
      8 C8         17.5459   73.8209   20.6431 C.3     1  <0>        -0.0150
      9 C9         19.5232   69.3654   16.6055 C.2     1  <0>        -0.0194
     10 C10        17.0898   76.5197   22.8336 C.3     1  <0>         0.1025
     11 C11        20.1314   72.5248   19.5736 C.3     1  <0>        -0.0313
     12 C12        19.9628   74.0140   20.0100 C.3     1  <0>        -0.0268
     13 C13        19.2705   75.6237   21.6074 C.3     1  <0>         0.0304
     14 C14        17.7100   72.2924   20.4710 C.3     1  <0>         0.0662
     15 C15        18.7034   71.9938   19.2393 C.3     1  <0>        -0.0024
     16 C16        19.0725   72.9776   22.2982 C.3     1  <0>         0.1631
     17 C17        19.7909   70.1642   17.6775 C.2     1  <0>        -0.0600
     18 C18        18.1500   68.6869   16.4202 C.2     1  <0>         0.1561
     19 C19        18.5833   76.1944   22.9024 C.2     1  <0>         0.1622
     20 C20        18.7356   70.4546   18.7922 C.3     1  <0>        -0.0049
     21 C21        18.9621   74.1397   21.2387 C.3     1  <0>         0.0365
     22 O1         16.5482   76.4926   24.1569 O.3     1  <0>        -0.3875
     23 O2         18.4742   73.2843   23.5570 O.3     1  <0>        -0.3665
     24 O3         17.8220   68.1178   15.3856 O.2     1  <0>        -0.2927
     25 O4         19.2325   76.3622   23.9060 O.2     1  <0>        -0.2947
     26 O5         18.2701   71.8642   21.7400 O.3     1  <0>        -0.3474
     27 H1         20.0734   69.7429   20.3881 H       1  <0>         0.0238
     28 H2         18.3263   69.6236   20.7878 H       1  <0>         0.0238
     29 H3         19.0680   68.4536   19.6443 H       1  <0>         0.0238
     30 H4         21.7712   75.2233   19.6639 H       1  <0>         0.0268
     31 H5         21.9643   73.9831   20.9294 H       1  <0>         0.0268
     32 H6         21.2561   75.5019   22.5512 H       1  <0>         0.0272
     33 H7         21.1322   76.7582   21.2991 H       1  <0>         0.0272
     34 H8         22.0783   72.6553   18.5902 H       1  <0>         0.0271
     35 H9         20.6624   72.8704   17.4823 H       1  <0>         0.0271
     36 H10        21.7473   70.7531   16.9534 H       1  <0>         0.0310
     37 H11        21.7079   70.2483   18.6856 H       1  <0>         0.0310
     38 H12        17.4299   67.9569   18.3693 H       1  <0>         0.0345
     39 H13        16.1353   68.5274   17.2955 H       1  <0>         0.0345
     40 H14        17.1279   70.8536   17.3812 H       1  <0>         0.0278
     41 H15        16.5790   70.2544   19.0028 H       1  <0>         0.0278
     42 H16        17.3425   74.3462   19.6982 H       1  <0>         0.0297
     43 H17        16.7191   74.0973   21.3140 H       1  <0>         0.0297
     44 H18        20.2933   69.2032   15.8659 H       1  <0>         0.0652
     45 H19        16.9485   77.5191   22.3963 H       1  <0>         0.0636
     46 H20        16.5770   75.7738   22.2085 H       1  <0>         0.0636
     47 H21        20.6192   71.9883   20.4007 H       1  <0>         0.0307
     48 H22        19.6042   74.4982   19.0897 H       1  <0>         0.0311
     49 H23        18.7983   76.2936   20.8737 H       1  <0>         0.0385
     50 H24        16.7740   71.7624   20.2407 H       1  <0>         0.0600
     51 H25        18.3065   72.5344   18.3673 H       1  <0>         0.0337
     52 H26        20.1388   72.7700   22.4708 H       1  <0>         0.0913
     53 H27        17.2267   76.7195   24.7819 H       1  <0>         0.2100
     54 H28        18.6943   72.6073   24.1861 H       1  <0>         0.2125
@<TRIPOS>BOND
     1     1    20    1
     2     2     3    1
     3     2    12    1
     4     3    13    1
     5     4     5    1
     6     4    11    1
     7     5    17    1
     8     6     7    1
     9     6    18    1
    10     7    20    1
    11     8    14    1
    12     8    21    1
    13     9    17    2
    14     9    18    1
    15    10    19    1
    16    10    22    1
    17    11    12    1
    18    11    15    1
    19    12    21    1
    20    13    19    1
    21    13    21    1
    22    14    15    1
    23    14    26    1
    24    15    20    1
    25    16    21    1
    26    16    23    1
    27    16    26    1
    28    17    20    1
    29    18    24    2
    30    19    25    2
    31     1    27    1
    32     1    28    1
    33     1    29    1
    34     2    30    1
    35     2    31    1
    36     3    32    1
    37     3    33    1
    38     4    34    1
    39     4    35    1
    40     5    36    1
    41     5    37    1
    42     6    38    1
    43     6    39    1
    44     7    40    1
    45     7    41    1
    46     8    42    1
    47     8    43    1
    48     9    44    1
    49    10    45    1
    50    10    46    1
    51    11    47    1
    52    12    48    1
    53    13    49    1
    54    14    50    1
    55    15    51    1
    56    16    52    1
    57    22    53    1
    58    23    54    1
@<TRIPOS>SUBSTRUCTURE
     1 <0>         1 TEMP              0 ****  ****    0 ROOT

