
##########                                Name:        AS4_201_2AA2
##########                    Molecular_Weight:              360.45
##########                DOCK_Rotatable_Bonds:                   4
##########                       Formal_Charge:        -0.000700012
##########                     HBond_Acceptors:                   5
##########                        HBond_Donors:                   2
##########                         Heavy_Atoms:                  26
##########                            HA_RMSDs:               0.300
##########                            HA_RMSDh:               0.300
##########                            HA_RMSDm:               0.300
##########                          Grid_Score:          -49.252747
##########                     Grid_vdw_energy:          -52.248199
##########                      Grid_es_energy:            2.995451
##########           Internal_energy_repulsive:           18.927416

@<TRIPOS>MOLECULE
AS4_201_2AA2
 54 58 1 0 0
SMALL
USER_CHARGES


@<TRIPOS>ATOM
      1 C1         19.0554   69.5230   20.0994 C.3     1  <0>        -0.0555
      2 C2         21.0588   74.7877   20.8490 C.3     1  <0>        -0.0486
      3 C3         20.5337   75.7653   21.9278 C.3     1  <0>        -0.0425
      4 C4         21.0334   72.4308   18.6044 C.3     1  <0>        -0.0459
      5 C5         21.2097   70.9554   18.1354 C.3     1  <0>        -0.0305
      6 C6         17.2775   68.7601   17.6231 C.3     1  <0>         0.0107
      7 C7         17.3572   70.1659   18.2440 C.3     1  <0>        -0.0366
      8 C8         17.3653   73.7791   20.8023 C.3     1  <0>        -0.0150
      9 C9         19.6530   69.5054   16.7322 C.2     1  <0>        -0.0194
     10 C10        16.8554   76.7576   22.9754 C.3     1  <0>         0.1025
     11 C11        20.0336   72.5922   19.8125 C.3     1  <0>        -0.0313
     12 C12        19.8003   74.0622   20.2828 C.3     1  <0>        -0.0268
     13 C13        18.9899   75.6028   21.8928 C.3     1  <0>         0.0304
     14 C14        17.5839   72.2619   20.5945 C.3     1  <0>         0.0662
     15 C15        18.6386   72.0293   19.4003 C.3     1  <0>        -0.0024
     16 C16        18.8437   72.9327   22.4991 C.3     1  <0>         0.1631
     17 C17        19.8490   70.2797   17.8372 C.2     1  <0>        -0.0600
     18 C18        18.3107   68.7924   16.4670 C.2     1  <0>         0.1561
     19 C19        18.2296   76.1143   23.1716 C.2     1  <0>         0.1622
     20 C20        18.7377   70.5057   18.9117 C.3     1  <0>        -0.0049
     21 C21        18.7437   74.1219   21.4690 C.3     1  <0>         0.0365
     22 O1         16.4216   77.3127   24.2199 O.3     1  <0>        -0.3875
     23 O2         18.1820   73.1842   23.7383 O.3     1  <0>        -0.3665
     24 O3         18.0459   68.2447   15.4033 O.2     1  <0>        -0.2927
     25 O4         18.7333   75.9931   24.2618 O.2     1  <0>        -0.2947
     26 O5         18.1011   71.8130   21.8746 O.3     1  <0>        -0.3474
     27 H1         20.0261   69.7869   20.5447 H       1  <0>         0.0238
     28 H2         18.2678   69.6043   20.8629 H       1  <0>         0.0238
     29 H3         19.0943   68.4910   19.7208 H       1  <0>         0.0238
     30 H4         21.5840   75.3341   20.0517 H       1  <0>         0.0268
     31 H5         21.7600   74.0633   21.2890 H       1  <0>         0.0268
     32 H6         20.9353   75.5119   22.9200 H       1  <0>         0.0272
     33 H7         20.8274   76.8005   21.6997 H       1  <0>         0.0272
     34 H8         22.0166   72.8093   18.9206 H       1  <0>         0.0271
     35 H9         20.6443   73.0151   17.7575 H       1  <0>         0.0271
     36 H10        21.8160   70.9473   17.2176 H       1  <0>         0.0310
     37 H11        21.7168   70.3906   18.9315 H       1  <0>         0.0310
     38 H12        17.5293   67.9840   18.3608 H       1  <0>         0.0345
     39 H13        16.2658   68.5475   17.2472 H       1  <0>         0.0345
     40 H14        17.1814   70.8985   17.4425 H       1  <0>         0.0278
     41 H15        16.5813   70.2356   19.0206 H       1  <0>         0.0278
     42 H16        17.1872   74.3258   19.8646 H       1  <0>         0.0297
     43 H17        16.5019   74.0109   21.4434 H       1  <0>         0.0297
     44 H18        20.4593   69.3879   16.0233 H       1  <0>         0.0652
     45 H19        16.9238   77.5534   22.2191 H       1  <0>         0.0636
     46 H20        16.1355   75.9972   22.6384 H       1  <0>         0.0636
     47 H21        20.5013   72.0461   20.6450 H       1  <0>         0.0307
     48 H22        19.4674   74.5626   19.3616 H       1  <0>         0.0311
     49 H23        18.5296   76.2799   21.1581 H       1  <0>         0.0385
     50 H24        16.6755   71.7115   20.3081 H       1  <0>         0.0600
     51 H25        18.2636   72.5836   18.5272 H       1  <0>         0.0337
     52 H26        19.9074   72.7517   22.7129 H       1  <0>         0.0913
     53 H27        17.1522   77.3407   24.8265 H       1  <0>         0.2100
     54 H28        17.8884   72.3624   24.1135 H       1  <0>         0.2125
@<TRIPOS>BOND
     1     1    20    1
     2     2     3    1
     3     2    12    1
     4     3    13    1
     5     4     5    1
     6     4    11    1
     7     5    17    1
     8     6     7    1
     9     6    18    1
    10     7    20    1
    11     8    14    1
    12     8    21    1
    13     9    17    2
    14     9    18    1
    15    10    19    1
    16    10    22    1
    17    11    12    1
    18    11    15    1
    19    12    21    1
    20    13    19    1
    21    13    21    1
    22    14    15    1
    23    14    26    1
    24    15    20    1
    25    16    21    1
    26    16    23    1
    27    16    26    1
    28    17    20    1
    29    18    24    2
    30    19    25    2
    31     1    27    1
    32     1    28    1
    33     1    29    1
    34     2    30    1
    35     2    31    1
    36     3    32    1
    37     3    33    1
    38     4    34    1
    39     4    35    1
    40     5    36    1
    41     5    37    1
    42     6    38    1
    43     6    39    1
    44     7    40    1
    45     7    41    1
    46     8    42    1
    47     8    43    1
    48     9    44    1
    49    10    45    1
    50    10    46    1
    51    11    47    1
    52    12    48    1
    53    13    49    1
    54    14    50    1
    55    15    51    1
    56    16    52    1
    57    22    53    1
    58    23    54    1
@<TRIPOS>SUBSTRUCTURE
     1 <0>         1 TEMP              0 ****  ****    0 ROOT

