
##########                                Name:        AS4_201_2AA2
##########                    Molecular_Weight:              360.45
##########                DOCK_Rotatable_Bonds:                   4
##########                       Formal_Charge:        -0.000700012
##########                     HBond_Acceptors:                   5
##########                        HBond_Donors:                   2
##########                         Heavy_Atoms:                  26
##########                            HA_RMSDs:               0.203
##########                            HA_RMSDh:               0.203
##########                            HA_RMSDm:               0.203
##########                          Grid_Score:          -50.275120
##########                     Grid_vdw_energy:          -53.846329
##########                      Grid_es_energy:            3.571209
##########           Internal_energy_repulsive:           18.907932

@<TRIPOS>MOLECULE
AS4_201_2AA2
 54 58 1 0 0
SMALL
USER_CHARGES


@<TRIPOS>ATOM
      1 C1         19.2509   69.4979   20.3095 C.3     1  <0>        -0.0555
      2 C2         21.1599   74.8347   20.7164 C.3     1  <0>        -0.0486
      3 C3         20.6644   75.8501   21.7742 C.3     1  <0>        -0.0425
      4 C4         21.0824   72.3750   18.5862 C.3     1  <0>        -0.0459
      5 C5         21.2714   70.8836   18.1771 C.3     1  <0>        -0.0305
      6 C6         17.3734   68.5806   17.9624 C.3     1  <0>         0.0107
      7 C7         17.4492   70.0154   18.5135 C.3     1  <0>        -0.0366
      8 C8         17.4941   73.7440   20.9001 C.3     1  <0>        -0.0150
      9 C9         19.6839   69.3354   16.9211 C.2     1  <0>        -0.0194
     10 C10        16.9834   76.7255   22.9739 C.3     1  <0>         0.1025
     11 C11        20.1391   72.5710   19.8339 C.3     1  <0>        -0.0313
     12 C12        19.8933   74.0560   20.2475 C.3     1  <0>        -0.0268
     13 C13        19.1251   75.6522   21.8235 C.3     1  <0>         0.0304
     14 C14        17.7391   72.2240   20.7514 C.3     1  <0>         0.0662
     15 C15        18.7397   71.9588   19.5179 C.3     1  <0>        -0.0024
     16 C16        19.0736   73.0109   22.5581 C.3     1  <0>         0.1631
     17 C17        19.9147   70.1648   17.9783 C.2     1  <0>        -0.0600
     18 C18        18.3480   68.5813   16.7560 C.2     1  <0>         0.1561
     19 C19        18.4159   76.2064   23.1139 C.2     1  <0>         0.1622
     20 C20        18.8519   70.4165   19.0953 C.3     1  <0>        -0.0049
     21 C21        18.8946   74.1480   21.4809 C.3     1  <0>         0.0365
     22 O1         16.3595   76.7168   24.2606 O.3     1  <0>        -0.3875
     23 O2         18.4671   73.3058   23.8158 O.3     1  <0>        -0.3665
     24 O3         18.0450   67.9786   15.7330 O.2     1  <0>        -0.2927
     25 O4         19.0019   76.2124   24.1691 O.2     1  <0>        -0.2947
     26 O5         18.3288   71.8472   22.0233 O.3     1  <0>        -0.3474
     27 H1         20.2354   69.8037   20.6933 H       1  <0>         0.0238
     28 H2         18.4996   69.5976   21.1068 H       1  <0>         0.0238
     29 H3         19.2962   68.4503   19.9771 H       1  <0>         0.0238
     30 H4         21.6322   75.3546   19.8699 H       1  <0>         0.0268
     31 H5         21.8991   74.1474   21.1537 H       1  <0>         0.0268
     32 H6         21.1199   75.6525   22.7557 H       1  <0>         0.0272
     33 H7         20.9214   76.8796   21.4845 H       1  <0>         0.0272
     34 H8         22.0704   72.7896   18.8354 H       1  <0>         0.0271
     35 H9         20.6384   72.9103   17.7339 H       1  <0>         0.0271
     36 H10        21.8323   70.8457   17.2316 H       1  <0>         0.0310
     37 H11        21.8303   70.3680   18.9720 H       1  <0>         0.0310
     38 H12        17.6797   67.8457   18.7214 H       1  <0>         0.0345
     39 H13        16.3500   68.3284   17.6475 H       1  <0>         0.0345
     40 H14        17.2167   70.7056   17.6890 H       1  <0>         0.0278
     41 H15        16.7105   70.1044   19.3238 H       1  <0>         0.0278
     42 H16        17.2572   74.2421   19.9483 H       1  <0>         0.0297
     43 H17        16.6576   73.9866   21.5720 H       1  <0>         0.0297
     44 H18        20.4573   69.2025   16.1791 H       1  <0>         0.0652
     45 H19        16.9986   77.7513   22.5769 H       1  <0>         0.0636
     46 H20        16.4207   76.0779   22.2854 H       1  <0>         0.0636
     47 H21        20.6599   72.0750   20.6663 H       1  <0>         0.0307
     48 H22        19.5038   74.5052   19.3220 H       1  <0>         0.0311
     49 H23        18.6132   76.2838   21.0825 H       1  <0>         0.0385
     50 H24        16.8315   71.6408   20.5360 H       1  <0>         0.0600
     51 H25        18.3092   72.4631   18.6401 H       1  <0>         0.0337
     52 H26        20.1505   72.8637   22.7267 H       1  <0>         0.0913
     53 H27        17.0184   76.5820   24.9316 H       1  <0>         0.2100
     54 H28        18.7820   72.6940   24.4709 H       1  <0>         0.2125
@<TRIPOS>BOND
     1     1    20    1
     2     2     3    1
     3     2    12    1
     4     3    13    1
     5     4     5    1
     6     4    11    1
     7     5    17    1
     8     6     7    1
     9     6    18    1
    10     7    20    1
    11     8    14    1
    12     8    21    1
    13     9    17    2
    14     9    18    1
    15    10    19    1
    16    10    22    1
    17    11    12    1
    18    11    15    1
    19    12    21    1
    20    13    19    1
    21    13    21    1
    22    14    15    1
    23    14    26    1
    24    15    20    1
    25    16    21    1
    26    16    23    1
    27    16    26    1
    28    17    20    1
    29    18    24    2
    30    19    25    2
    31     1    27    1
    32     1    28    1
    33     1    29    1
    34     2    30    1
    35     2    31    1
    36     3    32    1
    37     3    33    1
    38     4    34    1
    39     4    35    1
    40     5    36    1
    41     5    37    1
    42     6    38    1
    43     6    39    1
    44     7    40    1
    45     7    41    1
    46     8    42    1
    47     8    43    1
    48     9    44    1
    49    10    45    1
    50    10    46    1
    51    11    47    1
    52    12    48    1
    53    13    49    1
    54    14    50    1
    55    15    51    1
    56    16    52    1
    57    22    53    1
    58    23    54    1
@<TRIPOS>SUBSTRUCTURE
     1 <0>         1 TEMP              0 ****  ****    0 ROOT

