
##########                                Name:        AS4_201_2AA2
##########                    Molecular_Weight:              360.45
##########                DOCK_Rotatable_Bonds:                   4
##########                       Formal_Charge:        -0.000700012
##########                     HBond_Acceptors:                   5
##########                        HBond_Donors:                   2
##########                         Heavy_Atoms:                  26
##########                            HA_RMSDs:               0.213
##########                            HA_RMSDh:               0.213
##########                            HA_RMSDm:               0.213
##########                          Grid_Score:          -50.825092
##########                     Grid_vdw_energy:          -54.443787
##########                      Grid_es_energy:            3.618693
##########           Internal_energy_repulsive:           19.005816

@<TRIPOS>MOLECULE
AS4_201_2AA2
 54 58 1 0 0
SMALL
USER_CHARGES


@<TRIPOS>ATOM
      1 C1         18.9047   69.5485   20.2721 C.3     1  <0>        -0.0555
      2 C2         21.2224   74.7056   20.8424 C.3     1  <0>        -0.0486
      3 C3         20.7511   75.7535   21.8792 C.3     1  <0>        -0.0425
      4 C4         21.0673   72.2714   18.6873 C.3     1  <0>        -0.0459
      5 C5         21.1558   70.7714   18.2753 C.3     1  <0>        -0.0305
      6 C6         17.0998   68.8026   17.8101 C.3     1  <0>         0.0107
      7 C7         17.2616   70.2233   18.3788 C.3     1  <0>        -0.0366
      8 C8         17.4743   73.9234   20.8004 C.3     1  <0>        -0.0150
      9 C9         19.5225   69.3671   16.9134 C.2     1  <0>        -0.0194
     10 C10        17.0698   76.8824   22.8790 C.3     1  <0>         0.1025
     11 C11        20.0714   72.5392   19.8795 C.3     1  <0>        -0.0313
     12 C12        19.9256   74.0374   20.2925 C.3     1  <0>        -0.0268
     13 C13        19.2005   75.6844   21.8365 C.3     1  <0>         0.0304
     14 C14        17.6008   72.3890   20.6514 C.3     1  <0>         0.0662
     15 C15        18.6472   72.0474   19.4761 C.3     1  <0>        -0.0024
     16 C16        18.8867   73.0531   22.5408 C.3     1  <0>         0.1631
     17 C17        19.7583   70.1692   17.9904 C.2     1  <0>        -0.0600
     18 C18        18.1408   68.7279   16.6630 C.2     1  <0>         0.1561
     19 C19        18.4646   76.2895   23.0885 C.2     1  <0>         0.1622
     20 C20        18.6558   70.5031   19.0457 C.3     1  <0>        -0.0049
     21 C21        18.8668   74.2063   21.4661 C.3     1  <0>         0.0365
     22 O1         16.4043   76.9589   24.1424 O.3     1  <0>        -0.3875
     23 O2         18.2335   73.3912   23.7637 O.3     1  <0>        -0.3665
     24 O3         17.8499   68.1575   15.6181 O.2     1  <0>        -0.2927
     25 O4         19.0020   76.2757   24.1692 O.2     1  <0>        -0.2947
     26 O5         18.0809   71.9581   21.9519 O.3     1  <0>        -0.3474
     27 H1         19.8867   69.7693   20.7159 H       1  <0>         0.0238
     28 H2         18.1184   69.7066   21.0250 H       1  <0>         0.0238
     29 H3         18.8826   68.5025   19.9326 H       1  <0>         0.0238
     30 H4         21.7855   75.1884   20.0301 H       1  <0>         0.0268
     31 H5         21.8749   73.9569   21.3155 H       1  <0>         0.0268
     32 H6         21.1299   75.5137   22.8838 H       1  <0>         0.0272
     33 H7         21.1093   76.7594   21.6153 H       1  <0>         0.0272
     34 H8         22.0698   72.6009   18.9979 H       1  <0>         0.0271
     35 H9         20.7205   72.8459   17.8157 H       1  <0>         0.0271
     36 H10        21.7666   70.6915   17.3640 H       1  <0>         0.0310
     37 H11        21.6221   70.2071   19.0964 H       1  <0>         0.0310
     38 H12        17.2986   68.0409   18.5786 H       1  <0>         0.0345
     39 H13        16.0795   68.6381   17.4334 H       1  <0>         0.0345
     40 H14        17.1364   70.9345   17.5490 H       1  <0>         0.0278
     41 H15        16.4862   70.3696   19.1453 H       1  <0>         0.0278
     42 H16        17.3364   74.4442   19.8413 H       1  <0>         0.0297
     43 H17        16.6226   74.2316   21.4246 H       1  <0>         0.0297
     44 H18        20.3247   69.1739   16.2166 H       1  <0>         0.0652
     45 H19        17.1571   77.8895   22.4451 H       1  <0>         0.0636
     46 H20        16.4939   76.2412   22.1955 H       1  <0>         0.0636
     47 H21        20.4991   71.9974   20.7360 H       1  <0>         0.0307
     48 H22        19.6302   74.5221   19.3503 H       1  <0>         0.0311
     49 H23        18.7876   76.3601   21.0730 H       1  <0>         0.0385
     50 H24        16.6623   71.8846   20.3775 H       1  <0>         0.0600
     51 H25        18.3127   72.5901   18.5796 H       1  <0>         0.0337
     52 H26        19.9358   72.8157   22.7707 H       1  <0>         0.0913
     53 H27        16.6675   76.2245   24.6845 H       1  <0>         0.2100
     54 H28        18.0415   72.5984   24.2505 H       1  <0>         0.2125
@<TRIPOS>BOND
     1     1    20    1
     2     2     3    1
     3     2    12    1
     4     3    13    1
     5     4     5    1
     6     4    11    1
     7     5    17    1
     8     6     7    1
     9     6    18    1
    10     7    20    1
    11     8    14    1
    12     8    21    1
    13     9    17    2
    14     9    18    1
    15    10    19    1
    16    10    22    1
    17    11    12    1
    18    11    15    1
    19    12    21    1
    20    13    19    1
    21    13    21    1
    22    14    15    1
    23    14    26    1
    24    15    20    1
    25    16    21    1
    26    16    23    1
    27    16    26    1
    28    17    20    1
    29    18    24    2
    30    19    25    2
    31     1    27    1
    32     1    28    1
    33     1    29    1
    34     2    30    1
    35     2    31    1
    36     3    32    1
    37     3    33    1
    38     4    34    1
    39     4    35    1
    40     5    36    1
    41     5    37    1
    42     6    38    1
    43     6    39    1
    44     7    40    1
    45     7    41    1
    46     8    42    1
    47     8    43    1
    48     9    44    1
    49    10    45    1
    50    10    46    1
    51    11    47    1
    52    12    48    1
    53    13    49    1
    54    14    50    1
    55    15    51    1
    56    16    52    1
    57    22    53    1
    58    23    54    1
@<TRIPOS>SUBSTRUCTURE
     1 <0>         1 TEMP              0 ****  ****    0 ROOT

