
##########                                Name:        AS4_201_2AA2
##########                    Molecular_Weight:              360.45
##########                DOCK_Rotatable_Bonds:                   4
##########                       Formal_Charge:        -0.000700012
##########                     HBond_Acceptors:                   5
##########                        HBond_Donors:                   2
##########                         Heavy_Atoms:                  26
##########                            HA_RMSDs:               0.376
##########                            HA_RMSDh:               0.376
##########                            HA_RMSDm:               0.376
##########                          Grid_Score:          -45.836372
##########                     Grid_vdw_energy:          -48.903606
##########                      Grid_es_energy:            3.067232
##########           Internal_energy_repulsive:           19.273548

@<TRIPOS>MOLECULE
AS4_201_2AA2
 54 58 1 0 0
SMALL
USER_CHARGES


@<TRIPOS>ATOM
      1 C1         19.4083   69.5211   20.2064 C.3     1  <0>        -0.0555
      2 C2         21.1323   74.9260   20.5342 C.3     1  <0>        -0.0486
      3 C3         20.6145   75.9344   21.5879 C.3     1  <0>        -0.0425
      4 C4         21.1150   72.4426   18.4303 C.3     1  <0>        -0.0459
      5 C5         21.3515   70.9544   18.0339 C.3     1  <0>        -0.0305
      6 C6         17.5351   68.5134   17.8932 C.3     1  <0>         0.0107
      7 C7         17.5669   69.9556   18.4287 C.3     1  <0>        -0.0366
      8 C8         17.5100   73.7087   20.7765 C.3     1  <0>        -0.0150
      9 C9         19.8041   69.3380   16.8144 C.2     1  <0>        -0.0194
     10 C10        17.0042   76.8913   22.7890 C.3     1  <0>         0.1025
     11 C11        20.1812   72.6184   19.6881 C.3     1  <0>        -0.0313
     12 C12        19.8882   74.0981   20.0897 C.3     1  <0>        -0.0268
     13 C13        19.0839   75.6829   21.6593 C.3     1  <0>         0.0304
     14 C14        17.8067   72.1967   20.6401 C.3     1  <0>         0.0662
     15 C15        18.8004   71.9539   19.3965 C.3     1  <0>        -0.0024
     16 C16        19.1352   73.0494   22.4212 C.3     1  <0>         0.1631
     17 C17        20.0187   70.1862   17.8601 C.2     1  <0>        -0.0600
     18 C18        18.4937   68.5355   16.6744 C.2     1  <0>         0.1561
     19 C19        18.3719   76.2254   22.9530 C.2     1  <0>         0.1622
     20 C20        18.9618   70.4121   18.9882 C.3     1  <0>        -0.0049
     21 C21        18.9026   74.1679   21.3349 C.3     1  <0>         0.0365
     22 O1         16.5267   77.2923   24.0759 O.3     1  <0>        -0.3875
     23 O2         18.5346   73.3360   23.6837 O.3     1  <0>        -0.3665
     24 O3         18.1994   67.9117   15.6616 O.2     1  <0>        -0.2927
     25 O4         18.9058   76.1094   24.0293 O.2     1  <0>        -0.2947
     26 O5         18.4254   71.8545   21.9080 O.3     1  <0>        -0.3474
     27 H1         20.3862   69.8654   20.5742 H       1  <0>         0.0238
     28 H2         18.6641   69.6027   21.0123 H       1  <0>         0.0238
     29 H3         19.4866   68.4723   19.8841 H       1  <0>         0.0238
     30 H4         21.5751   75.4531   19.6763 H       1  <0>         0.0268
     31 H5         21.9008   74.2698   20.9688 H       1  <0>         0.0268
     32 H6         21.0891   75.7634   22.5654 H       1  <0>         0.0272
     33 H7         20.8312   76.9692   21.2845 H       1  <0>         0.0272
     34 H8         22.0908   72.8943   18.6624 H       1  <0>         0.0271
     35 H9         20.6417   72.9527   17.5784 H       1  <0>         0.0271
     36 H10        21.9014   70.9264   17.0817 H       1  <0>         0.0310
     37 H11        21.9383   70.4674   18.8267 H       1  <0>         0.0310
     38 H12        17.8767   67.7978   18.6557 H       1  <0>         0.0345
     39 H13        16.5174   68.2219   17.5942 H       1  <0>         0.0345
     40 H14        17.2998   70.6284   17.6004 H       1  <0>         0.0278
     41 H15        16.8358   70.0271   19.2475 H       1  <0>         0.0278
     42 H16        17.2437   74.1880   19.8228 H       1  <0>         0.0297
     43 H17        16.6740   73.9288   21.4567 H       1  <0>         0.0297
     44 H18        20.5722   69.2246   16.0638 H       1  <0>         0.0652
     45 H19        17.0975   77.7729   22.1377 H       1  <0>         0.0636
     46 H20        16.2976   76.1793   22.3375 H       1  <0>         0.0636
     47 H21        20.7297   72.1499   20.5186 H       1  <0>         0.0307
     48 H22        19.4715   74.5234   19.1648 H       1  <0>         0.0311
     49 H23        18.5407   76.2881   20.9185 H       1  <0>         0.0385
     50 H24        16.9177   71.5797   20.4424 H       1  <0>         0.0600
     51 H25        18.3414   72.4333   18.5193 H       1  <0>         0.0337
     52 H26        20.2187   72.9420   22.5773 H       1  <0>         0.0913
     53 H27        16.7698   76.6396   24.7219 H       1  <0>         0.2100
     54 H28        18.6014   72.5739   24.2470 H       1  <0>         0.2125
@<TRIPOS>BOND
     1     1    20    1
     2     2     3    1
     3     2    12    1
     4     3    13    1
     5     4     5    1
     6     4    11    1
     7     5    17    1
     8     6     7    1
     9     6    18    1
    10     7    20    1
    11     8    14    1
    12     8    21    1
    13     9    17    2
    14     9    18    1
    15    10    19    1
    16    10    22    1
    17    11    12    1
    18    11    15    1
    19    12    21    1
    20    13    19    1
    21    13    21    1
    22    14    15    1
    23    14    26    1
    24    15    20    1
    25    16    21    1
    26    16    23    1
    27    16    26    1
    28    17    20    1
    29    18    24    2
    30    19    25    2
    31     1    27    1
    32     1    28    1
    33     1    29    1
    34     2    30    1
    35     2    31    1
    36     3    32    1
    37     3    33    1
    38     4    34    1
    39     4    35    1
    40     5    36    1
    41     5    37    1
    42     6    38    1
    43     6    39    1
    44     7    40    1
    45     7    41    1
    46     8    42    1
    47     8    43    1
    48     9    44    1
    49    10    45    1
    50    10    46    1
    51    11    47    1
    52    12    48    1
    53    13    49    1
    54    14    50    1
    55    15    51    1
    56    16    52    1
    57    22    53    1
    58    23    54    1
@<TRIPOS>SUBSTRUCTURE
     1 <0>         1 TEMP              0 ****  ****    0 ROOT

