
##########                                Name:        ZOL_901_1ZW5
##########                    Molecular_Weight:             268.059
##########                DOCK_Rotatable_Bonds:                   5
##########                       Formal_Charge:             -3.9999
##########                     HBond_Acceptors:                   9
##########                        HBond_Donors:                   1
##########                         Heavy_Atoms:                  16
##########                            HA_RMSDs:               0.575
##########                            HA_RMSDh:               0.575
##########                            HA_RMSDm:               0.575
##########                          Grid_Score:          282.148956
##########                     Grid_vdw_energy:          -28.971996
##########                      Grid_es_energy:          311.120941
##########           Internal_energy_repulsive:            6.796324

@<TRIPOS>MOLECULE
ZOL_901_1ZW5
 22 22 1 0 0
SMALL
USER_CHARGES


@<TRIPOS>ATOM
      1 C1         14.7949   29.5464   -7.8443 C.2     1  <0>         0.0430
      2 C2         15.2164   30.6708   -7.1844 C.2     1  <0>         0.0158
      3 C3         13.8505   31.2699   -8.7626 C.2     1  <0>         0.0878
      4 C4         14.8207   33.1194   -7.3467 C.3     1  <0>         0.0556
      5 C5         15.1273   34.1367   -8.4924 C.3     1  <0>         0.1341
      6 N1         13.9700   29.9375   -8.8317 N.2     1  <0>        -0.2466
      7 N2         14.6316   31.7224   -7.7692 N.pl3   1  <0>        -0.2926
      8 O1         13.9424   34.3132   -9.2632 O.3     1  <0>        -0.3768
      9 O2         14.4800   35.9476   -6.5367 O.3     1  <0>        -0.8106
     10 O3         16.9047   35.6896   -7.0501 O.3     1  <0>        -0.8106
     11 O4         16.7692   34.9284  -10.4184 O.3     1  <0>        -0.8106
     12 O5         16.3710   32.4157  -10.4456 O.3     1  <0>        -0.8106
     13 O6         15.2739   36.7702   -8.6378 O.2     1  <0>        -0.3501
     14 O7         17.4929   33.3660   -8.5464 O.2     1  <0>        -0.3501
     15 P1         15.4784   35.7113   -7.6405 P.3     1  <0>        -0.0270
     16 P2         16.5143   33.6827   -9.5939 P.3     1  <0>        -0.0270
     17 H1         15.0748   28.5292   -7.6131 H       1  <0>         0.0843
     18 H2         15.8961   30.7024   -6.3458 H       1  <0>         0.0799
     19 H3         13.2284   31.8796   -9.4011 H       1  <0>         0.1002
     20 H4         15.6714   33.1412   -6.6495 H       1  <0>         0.0504
     21 H5         13.8913   33.4447   -6.8562 H       1  <0>         0.0504
     22 H6         13.7084   35.2338   -9.2788 H       1  <0>         0.2112
@<TRIPOS>BOND
     1     1     2    2
     2     1     6    1
     3     2     7    1
     4     3     6    2
     5     3     7    1
     6     4     5    1
     7     4     7    1
     8     5     8    1
     9     5    15    1
    10     5    16    1
    11     9    15    1
    12    10    15    1
    13    11    16    1
    14    12    16    1
    15    13    15    2
    16    14    16    2
    17     1    17    1
    18     2    18    1
    19     3    19    1
    20     4    20    1
    21     4    21    1
    22     8    22    1
@<TRIPOS>SUBSTRUCTURE
     1 <0>         1 TEMP              0 ****  ****    0 ROOT

