
##########                                Name:        KIQ_901_2I78
##########                    Molecular_Weight:             446.375
##########                DOCK_Rotatable_Bonds:                   4
##########                       Formal_Charge:              0.9999
##########                     HBond_Acceptors:                  12
##########                        HBond_Donors:                   3
##########                         Heavy_Atoms:                  31
##########                            HA_RMSDs:               0.321
##########                            HA_RMSDh:               0.321
##########                            HA_RMSDm:               0.321
##########                          Grid_Score:         -160.542618
##########                     Grid_vdw_energy:          -43.092476
##########                      Grid_es_energy:         -117.450142
##########           Internal_energy_repulsive:           23.037045

@<TRIPOS>MOLECULE
KIQ_901_2I78
 49 52 1 0 0
SMALL
USER_CHARGES


@<TRIPOS>ATOM
      1 C1        -14.2731   -6.4401   57.8573 C.ar    1  <0>        -0.0172
      2 C2        -12.1397   -4.8214   58.5767 C.ar    1  <0>         0.0119
      3 C3        -21.4304   -3.8766   60.3663 C.3     1  <0>         0.0356
      4 C4        -20.2580   -4.2349   61.2822 C.3     1  <0>         0.0316
      5 C5        -16.8591   -5.6073   58.8987 C.3     1  <0>        -0.0220
      6 C6        -21.5886   -5.9745   62.5108 C.3     1  <0>         0.0728
      7 C7        -16.8294   -6.4484   61.7558 C.3     1  <0>         0.0206
      8 C8        -18.1243   -5.7837   59.7149 C.2     1  <0>        -0.0749
      9 C9        -14.3837   -5.6146   58.9756 C.ar    1  <0>        -0.0006
     10 C10       -13.0979   -6.4510   57.1103 C.ar    1  <0>         0.1588
     11 C11       -13.3083   -4.8170   59.3244 C.ar    1  <0>         0.1299
     12 C12       -12.0274   -5.6512   57.4622 C.ar    1  <0>         0.1611
     13 C13       -22.7823   -5.3511   61.8526 C.2     1  <0>         0.1431
     14 C14       -23.9597   -4.1305   60.5739 C.2     1  <0>         0.2295
     15 C15       -15.6218   -5.5818   59.7919 C.3     1  <0>         0.0335
     16 C16       -15.6994   -6.7467   60.7810 C.3     1  <0>        -0.0129
     17 C17       -18.1212   -6.2172   61.0002 C.2     1  <0>         0.0159
     18 C18       -19.3650   -6.5197   61.7126 C.2     1  <0>         0.2429
     19 C19       -24.4049   -3.1265   59.5508 C.3     1  <0>         0.4503
     20 N1        -14.4773   -6.9658   61.5234 N.4     1  <0>         0.2214
     21 N2        -24.0886   -5.6353   62.1058 N.2     1  <0>        -0.1350
     22 N3        -24.8713   -4.8300   61.2646 N.2     1  <0>        -0.1276
     23 N4        -22.6904   -4.4112   60.8954 N.pl3   1  <0>        -0.2641
     24 N5        -20.3595   -5.6167   61.7919 N.am    1  <0>        -0.2891
     25 O1        -19.4342   -7.6131   62.2568 O.2     1  <0>        -0.2703
     26 F1        -12.9895   -7.2385   56.0342 F       1  <0>        -0.2025
     27 F2        -13.3848   -4.0303   60.3951 F       1  <0>        -0.2051
     28 F3        -10.8886   -5.6883   56.7290 F       1  <0>        -0.2024
     29 F4        -25.3690   -2.4292   60.1164 F       1  <0>        -0.1633
     30 F5        -23.4271   -2.2935   59.2197 F       1  <0>        -0.1633
     31 F6        -24.8791   -3.7512   58.4791 F       1  <0>        -0.1633
     32 H1        -15.1004   -7.0722   57.5699 H       1  <0>         0.0651
     33 H2        -11.3164   -4.1816   58.8583 H       1  <0>         0.0676
     34 H3        -21.5077   -2.7816   60.2954 H       1  <0>         0.0484
     35 H4        -21.2501   -4.3053   59.3695 H       1  <0>         0.0484
     36 H5        -19.3228   -4.1380   60.7113 H       1  <0>         0.0480
     37 H6        -20.2554   -3.5434   62.1377 H       1  <0>         0.0480
     38 H7        -16.7710   -6.4466   58.1931 H       1  <0>         0.0315
     39 H8        -16.9203   -4.6566   58.3487 H       1  <0>         0.0315
     40 H9        -21.5183   -5.6124   63.5471 H       1  <0>         0.0543
     41 H10       -21.7041   -7.0684   62.5049 H       1  <0>         0.0543
     42 H11       -16.9556   -7.3026   62.4374 H       1  <0>         0.0370
     43 H12       -16.5809   -5.5465   62.3343 H       1  <0>         0.0370
     44 H13       -19.0722   -5.5536   59.2513 H       1  <0>         0.0577
     45 H14       -15.5905   -4.6437   60.3655 H       1  <0>         0.0408
     46 H15       -15.8739   -7.6658   60.2024 H       1  <0>         0.0859
     47 H16       -13.7310   -7.1623   60.8874 H       1  <0>         0.1997
     48 H17       -14.2572   -6.1461   62.0522 H       1  <0>         0.1997
     49 H18       -14.5988   -7.7404   62.1441 H       1  <0>         0.1997
@<TRIPOS>BOND
     1     1     9   ar
     2     1    10   ar
     3     2    11   ar
     4     2    12   ar
     5     3     4    1
     6     3    23    1
     7     4    24    1
     8     5     8    1
     9     5    15    1
    10     6    13    1
    11     6    24    1
    12     7    16    1
    13     7    17    1
    14     8    17    2
    15     9    11   ar
    16     9    15    1
    17    10    12   ar
    18    10    26    1
    19    11    27    1
    20    12    28    1
    21    13    21    2
    22    13    23    1
    23    14    19    1
    24    14    22    2
    25    14    23    1
    26    15    16    1
    27    16    20    1
    28    17    18    1
    29    18    24   am
    30    18    25    2
    31    19    29    1
    32    19    30    1
    33    19    31    1
    34    21    22    1
    35     1    32    1
    36     2    33    1
    37     3    34    1
    38     3    35    1
    39     4    36    1
    40     4    37    1
    41     5    38    1
    42     5    39    1
    43     6    40    1
    44     6    41    1
    45     7    42    1
    46     7    43    1
    47     8    44    1
    48    15    45    1
    49    16    46    1
    50    20    47    1
    51    20    48    1
    52    20    49    1
@<TRIPOS>SUBSTRUCTURE
     1 <0>         1 TEMP              0 ****  ****    0 ROOT

