
##########                                Name:        KIQ_901_2I78
##########                    Molecular_Weight:             446.375
##########                DOCK_Rotatable_Bonds:                   4
##########                       Formal_Charge:              0.9999
##########                     HBond_Acceptors:                  12
##########                        HBond_Donors:                   3
##########                         Heavy_Atoms:                  31
##########                            HA_RMSDs:               0.587
##########                            HA_RMSDh:               0.587
##########                            HA_RMSDm:               0.587
##########                          Grid_Score:         -159.697159
##########                     Grid_vdw_energy:          -43.952637
##########                      Grid_es_energy:         -115.744522
##########           Internal_energy_repulsive:           16.026791

@<TRIPOS>MOLECULE
KIQ_901_2I78
 49 52 1 0 0
SMALL
USER_CHARGES


@<TRIPOS>ATOM
      1 C1        -14.2626   -6.6019   57.8428 C.ar    1  <0>        -0.0172
      2 C2        -12.2383   -4.8082   58.4548 C.ar    1  <0>         0.0119
      3 C3        -21.4479   -3.6261   60.1557 C.3     1  <0>         0.0356
      4 C4        -20.3222   -4.1053   61.0750 C.3     1  <0>         0.0316
      5 C5        -16.9291   -5.6379   58.6639 C.3     1  <0>        -0.0220
      6 C6        -21.7793   -5.8388   62.1604 C.3     1  <0>         0.0728
      7 C7        -17.0365   -6.4058   61.5397 C.3     1  <0>         0.0206
      8 C8        -18.2316   -5.7838   59.4257 C.2     1  <0>        -0.0749
      9 C9        -14.4600   -5.6620   58.8537 C.ar    1  <0>        -0.0006
     10 C10       -13.0558   -6.6385   57.1488 C.ar    1  <0>         0.1588
     11 C11       -13.4382   -4.7776   59.1505 C.ar    1  <0>         0.1299
     12 C12       -12.0391   -5.7518   57.4482 C.ar    1  <0>         0.1611
     13 C13       -22.9186   -5.1099   61.5143 C.2     1  <0>         0.1431
     14 C14       -23.9920   -3.7490   60.2868 C.2     1  <0>         0.2295
     15 C15       -15.7335   -5.5989   59.6117 C.3     1  <0>         0.0335
     16 C16       -15.8660   -6.7375   60.6253 C.3     1  <0>        -0.0129
     17 C17       -18.2906   -6.1842   60.7204 C.2     1  <0>         0.0159
     18 C18       -19.5681   -6.4590   61.3827 C.2     1  <0>         0.2429
     19 C19       -24.3535   -2.6608   59.3182 C.3     1  <0>         0.4503
     20 N1        -14.6809   -6.9467   61.4279 N.4     1  <0>         0.2214
     21 N2        -24.2449   -5.3349   61.7182 N.2     1  <0>        -0.1350
     22 N3        -24.9590   -4.4368   60.9106 N.2     1  <0>        -0.1276
     23 N4        -22.7493   -4.1200   60.6202 N.pl3   1  <0>        -0.2641
     24 N5        -20.5133   -5.5078   61.4947 N.am    1  <0>        -0.2891
     25 O1        -19.7119   -7.5779   61.8557 O.2     1  <0>        -0.2703
     26 F1        -12.8642   -7.5361   56.1753 F       1  <0>        -0.2025
     27 F2        -13.5977   -3.8798   60.1200 F       1  <0>        -0.2051
     28 F3        -10.8682   -5.8147   56.7694 F       1  <0>        -0.2024
     29 F4        -25.6478   -2.7772   59.1021 F       1  <0>        -0.1633
     30 F5        -24.1217   -1.4558   59.8219 F       1  <0>        -0.1633
     31 F6        -23.6959   -2.8326   58.1774 F       1  <0>        -0.1633
     32 H1        -15.0469   -7.3027   57.5977 H       1  <0>         0.0651
     33 H2        -11.4581   -4.1005   58.6931 H       1  <0>         0.0676
     34 H3        -21.4630   -2.5262   60.1515 H       1  <0>         0.0484
     35 H4        -21.2643   -4.0026   59.1385 H       1  <0>         0.0484
     36 H5        -19.3679   -4.0268   60.5336 H       1  <0>         0.0480
     37 H6        -20.3050   -3.4686   61.9718 H       1  <0>         0.0480
     38 H7        -16.8165   -6.4957   57.9844 H       1  <0>         0.0315
     39 H8        -16.9571   -4.7012   58.0879 H       1  <0>         0.0315
     40 H9        -21.7174   -5.5453   63.2187 H       1  <0>         0.0543
     41 H10       -21.9544   -6.9221   62.0834 H       1  <0>         0.0543
     42 H11       -17.2009   -7.2413   62.2361 H       1  <0>         0.0370
     43 H12       -16.8067   -5.4912   62.1059 H       1  <0>         0.0370
     44 H13       -19.1555   -5.5585   58.9138 H       1  <0>         0.0577
     45 H14       -15.7201   -4.6467   60.1622 H       1  <0>         0.0408
     46 H15       -16.0221   -7.6697   60.0627 H       1  <0>         0.0859
     47 H16       -13.9083   -7.1651   60.8318 H       1  <0>         0.1997
     48 H17       -14.4779   -6.1155   61.9454 H       1  <0>         0.1997
     49 H18       -14.8372   -7.7043   62.0617 H       1  <0>         0.1997
@<TRIPOS>BOND
     1     1     9   ar
     2     1    10   ar
     3     2    11   ar
     4     2    12   ar
     5     3     4    1
     6     3    23    1
     7     4    24    1
     8     5     8    1
     9     5    15    1
    10     6    13    1
    11     6    24    1
    12     7    16    1
    13     7    17    1
    14     8    17    2
    15     9    11   ar
    16     9    15    1
    17    10    12   ar
    18    10    26    1
    19    11    27    1
    20    12    28    1
    21    13    21    2
    22    13    23    1
    23    14    19    1
    24    14    22    2
    25    14    23    1
    26    15    16    1
    27    16    20    1
    28    17    18    1
    29    18    24   am
    30    18    25    2
    31    19    29    1
    32    19    30    1
    33    19    31    1
    34    21    22    1
    35     1    32    1
    36     2    33    1
    37     3    34    1
    38     3    35    1
    39     4    36    1
    40     4    37    1
    41     5    38    1
    42     5    39    1
    43     6    40    1
    44     6    41    1
    45     7    42    1
    46     7    43    1
    47     8    44    1
    48    15    45    1
    49    16    46    1
    50    20    47    1
    51    20    48    1
    52    20    49    1
@<TRIPOS>SUBSTRUCTURE
     1 <0>         1 TEMP              0 ****  ****    0 ROOT

