
##########                                Name:        KIQ_901_2I78
##########                    Molecular_Weight:             446.375
##########                DOCK_Rotatable_Bonds:                   4
##########                       Formal_Charge:              0.9999
##########                     HBond_Acceptors:                  12
##########                        HBond_Donors:                   3
##########                         Heavy_Atoms:                  31
##########                            HA_RMSDs:               0.526
##########                            HA_RMSDh:               0.526
##########                            HA_RMSDm:               0.478
##########                          Grid_Score:         -160.678467
##########                     Grid_vdw_energy:          -42.709717
##########                      Grid_es_energy:         -117.968742
##########           Internal_energy_repulsive:           12.816235

@<TRIPOS>MOLECULE
KIQ_901_2I78
 49 52 1 0 0
SMALL
USER_CHARGES


@<TRIPOS>ATOM
      1 C1        -14.0471   -6.5507   58.1024 C.ar    1  <0>        -0.0172
      2 C2        -12.2967   -4.4692   58.6434 C.ar    1  <0>         0.0119
      3 C3        -21.3707   -3.8724   60.8271 C.3     1  <0>         0.0356
      4 C4        -20.2222   -4.5128   61.6097 C.3     1  <0>         0.0316
      5 C5        -16.8501   -5.8222   58.7889 C.3     1  <0>        -0.0220
      6 C6        -21.6536   -6.4240   62.3871 C.3     1  <0>         0.0728
      7 C7        -16.9581   -6.5601   61.6725 C.3     1  <0>         0.0206
      8 C8        -18.1513   -6.0938   59.5177 C.2     1  <0>        -0.0749
      9 C9        -14.3983   -5.5853   59.0452 C.ar    1  <0>        -0.0006
     10 C10       -12.8246   -6.4687   57.4404 C.ar    1  <0>         0.1588
     11 C11       -13.5116   -4.5561   59.3076 C.ar    1  <0>         0.1299
     12 C12       -11.9434   -5.4377   57.7052 C.ar    1  <0>         0.1611
     13 C13       -22.8081   -5.5899   61.9201 C.2     1  <0>         0.1431
     14 C14       -23.9108   -4.0253   60.9997 C.2     1  <0>         0.2295
     15 C15       -15.6924   -5.6461   59.7677 C.3     1  <0>         0.0335
     16 C16       -15.7341   -6.7792   60.7952 C.3     1  <0>        -0.0129
     17 C17       -18.2049   -6.4816   60.8165 C.2     1  <0>         0.0159
     18 C18       -19.4649   -6.8800   61.4486 C.2     1  <0>         0.2429
     19 C19       -24.2955   -2.7753   60.2632 C.3     1  <0>         0.4503
     20 N1        -14.5568   -6.8529   61.6324 N.4     1  <0>         0.2214
     21 N2        -24.1290   -5.8532   62.1128 N.2     1  <0>        -0.1350
     22 N3        -24.8624   -4.8212   61.5079 N.2     1  <0>        -0.1276
     23 N4        -22.6604   -4.4488   61.2244 N.pl3   1  <0>        -0.2641
     24 N5        -20.4050   -5.9697   61.7626 N.am    1  <0>        -0.2891
     25 O1        -19.5985   -8.0684   61.7059 O.2     1  <0>        -0.2703
     26 F1        -12.4859   -7.3906   56.5320 F       1  <0>        -0.2025
     27 F2        -13.8184   -3.6299   60.2128 F       1  <0>        -0.2051
     28 F3        -10.7534   -5.3855   57.0593 F       1  <0>        -0.2024
     29 F4        -25.6025   -2.8290   60.1071 F       1  <0>        -0.1633
     30 F5        -24.0034   -1.6840   60.9586 F       1  <0>        -0.1633
     31 F6        -23.7069   -2.7510   59.0731 F       1  <0>        -0.1633
     32 H1        -14.7243   -7.3635   57.8851 H       1  <0>         0.0651
     33 H2        -11.6242   -3.6505   58.8534 H       1  <0>         0.0676
     34 H3        -21.3837   -2.7914   61.0306 H       1  <0>         0.0484
     35 H4        -21.2149   -4.0500   59.7528 H       1  <0>         0.0484
     36 H5        -19.2824   -4.3308   61.0679 H       1  <0>         0.0480
     37 H6        -20.1800   -4.0564   62.6097 H       1  <0>         0.0480
     38 H7        -16.6295   -6.6721   58.1263 H       1  <0>         0.0315
     39 H8        -16.9592   -4.9010   58.1977 H       1  <0>         0.0315
     40 H9        -21.5632   -6.3350   63.4798 H       1  <0>         0.0543
     41 H10       -21.8329   -7.4739   62.1121 H       1  <0>         0.0543
     42 H11       -17.0542   -7.3992   62.3774 H       1  <0>         0.0370
     43 H12       -16.8411   -5.6193   62.2303 H       1  <0>         0.0370
     44 H13       -19.0788   -5.9730   58.9778 H       1  <0>         0.0577
     45 H14       -15.7939   -4.6907   60.3033 H       1  <0>         0.0408
     46 H15       -15.7761   -7.7298   60.2434 H       1  <0>         0.0859
     47 H16       -13.7491   -6.9968   61.0608 H       1  <0>         0.1997
     48 H17       -14.4563   -5.9984   62.1420 H       1  <0>         0.1997
     49 H18       -14.6511   -7.6144   62.2737 H       1  <0>         0.1997
@<TRIPOS>BOND
     1     1     9   ar
     2     1    10   ar
     3     2    11   ar
     4     2    12   ar
     5     3     4    1
     6     3    23    1
     7     4    24    1
     8     5     8    1
     9     5    15    1
    10     6    13    1
    11     6    24    1
    12     7    16    1
    13     7    17    1
    14     8    17    2
    15     9    11   ar
    16     9    15    1
    17    10    12   ar
    18    10    26    1
    19    11    27    1
    20    12    28    1
    21    13    21    2
    22    13    23    1
    23    14    19    1
    24    14    22    2
    25    14    23    1
    26    15    16    1
    27    16    20    1
    28    17    18    1
    29    18    24   am
    30    18    25    2
    31    19    29    1
    32    19    30    1
    33    19    31    1
    34    21    22    1
    35     1    32    1
    36     2    33    1
    37     3    34    1
    38     3    35    1
    39     4    36    1
    40     4    37    1
    41     5    38    1
    42     5    39    1
    43     6    40    1
    44     6    41    1
    45     7    42    1
    46     7    43    1
    47     8    44    1
    48    15    45    1
    49    16    46    1
    50    20    47    1
    51    20    48    1
    52    20    49    1
@<TRIPOS>SUBSTRUCTURE
     1 <0>         1 TEMP              0 ****  ****    0 ROOT

