
##########                                Name:        KIQ_901_2I78
##########                    Molecular_Weight:             446.375
##########                DOCK_Rotatable_Bonds:                   4
##########                       Formal_Charge:              0.9999
##########                     HBond_Acceptors:                  12
##########                        HBond_Donors:                   3
##########                         Heavy_Atoms:                  31
##########                            HA_RMSDs:               0.637
##########                            HA_RMSDh:               0.637
##########                            HA_RMSDm:               0.634
##########                          Grid_Score:         -160.272980
##########                     Grid_vdw_energy:          -44.452423
##########                      Grid_es_energy:         -115.820557
##########           Internal_energy_repulsive:           15.601171

@<TRIPOS>MOLECULE
KIQ_901_2I78
 49 52 1 0 0
SMALL
USER_CHARGES


@<TRIPOS>ATOM
      1 C1        -14.1605   -6.6082   57.8366 C.ar    1  <0>        -0.0172
      2 C2        -12.1545   -4.8239   58.5304 C.ar    1  <0>         0.0119
      3 C3        -21.3245   -3.5465   60.2528 C.3     1  <0>         0.0356
      4 C4        -20.2257   -4.1404   61.1368 C.3     1  <0>         0.0316
      5 C5        -16.8475   -5.6569   58.6108 C.3     1  <0>        -0.0220
      6 C6        -21.7506   -5.9116   62.0554 C.3     1  <0>         0.0728
      7 C7        -17.0247   -6.4884   61.4654 C.3     1  <0>         0.0206
      8 C8        -18.1680   -5.8185   59.3375 C.2     1  <0>        -0.0749
      9 C9        -14.3837   -5.6876   58.8598 C.ar    1  <0>        -0.0006
     10 C10       -12.9374   -6.6305   57.1712 C.ar    1  <0>         0.1588
     11 C11       -13.3707   -4.8077   59.1975 C.ar    1  <0>         0.1299
     12 C12       -11.9296   -5.7483   57.5115 C.ar    1  <0>         0.1611
     13 C13       -22.8582   -5.0922   61.4650 C.2     1  <0>         0.1431
     14 C14       -23.8726   -3.5954   60.3508 C.2     1  <0>         0.2295
     15 C15       -15.6751   -5.6401   59.5879 C.3     1  <0>         0.0335
     16 C16       -15.8327   -6.8008   60.5725 C.3     1  <0>        -0.0129
     17 C17       -18.2586   -6.2475   60.6211 C.2     1  <0>         0.0159
     18 C18       -19.5518   -6.5357   61.2461 C.2     1  <0>         0.2429
     19 C19       -24.1875   -2.4163   59.4769 C.3     1  <0>         0.4503
     20 N1        -14.6674   -7.0289   61.3987 N.4     1  <0>         0.2214
     21 N2        -24.1933   -5.2896   61.6372 N.2     1  <0>        -0.1350
     22 N3        -24.8686   -4.3019   60.9042 N.2     1  <0>        -0.1276
     23 N4        -22.6465   -4.0350   60.6615 N.pl3   1  <0>        -0.2641
     24 N5        -20.4670   -5.5667   61.4319 N.am    1  <0>        -0.2891
     25 O1        -19.7373   -7.6858   61.6191 O.2     1  <0>        -0.2703
     26 F1        -12.7209   -7.5095   56.1860 F       1  <0>        -0.2025
     27 F2        -13.5549   -3.9284   60.1794 F       1  <0>        -0.2051
     28 F3        -10.7426   -5.7972   56.8600 F       1  <0>        -0.2024
     29 F4        -25.4030   -2.0297   59.8064 F       1  <0>        -0.1633
     30 F5        -23.3556   -1.4061   59.6939 F       1  <0>        -0.1633
     31 F6        -24.1685   -2.7805   58.2000 F       1  <0>        -0.1633
     32 H1        -14.9376   -7.3052   57.5596 H       1  <0>         0.0651
     33 H2        -11.3813   -4.1199   58.8006 H       1  <0>         0.0676
     34 H3        -21.3039   -2.4504   60.3437 H       1  <0>         0.0484
     35 H4        -21.1416   -3.8398   59.2085 H       1  <0>         0.0484
     36 H5        -19.2631   -4.0473   60.6126 H       1  <0>         0.0480
     37 H6        -20.1981   -3.5844   62.0855 H       1  <0>         0.0480
     38 H7        -16.7188   -6.4995   57.9154 H       1  <0>         0.0315
     39 H8        -16.8611   -4.7076   58.0553 H       1  <0>         0.0315
     40 H9        -21.6914   -5.7127   63.1357 H       1  <0>         0.0543
     41 H10       -21.9599   -6.9777   61.8834 H       1  <0>         0.0543
     42 H11       -17.2064   -7.3389   62.1389 H       1  <0>         0.0370
     43 H12       -16.8083   -5.5868   62.0572 H       1  <0>         0.0370
     44 H13       -19.0792   -5.5810   58.8085 H       1  <0>         0.0577
     45 H14       -15.6747   -4.7003   60.1596 H       1  <0>         0.0408
     46 H15       -15.9754   -7.7202   59.9857 H       1  <0>         0.0859
     47 H16       -13.8806   -7.2347   60.8167 H       1  <0>         0.1997
     48 H17       -14.4766   -6.2095   61.9392 H       1  <0>         0.1997
     49 H18       -14.8393   -7.8002   62.0115 H       1  <0>         0.1997
@<TRIPOS>BOND
     1     1     9   ar
     2     1    10   ar
     3     2    11   ar
     4     2    12   ar
     5     3     4    1
     6     3    23    1
     7     4    24    1
     8     5     8    1
     9     5    15    1
    10     6    13    1
    11     6    24    1
    12     7    16    1
    13     7    17    1
    14     8    17    2
    15     9    11   ar
    16     9    15    1
    17    10    12   ar
    18    10    26    1
    19    11    27    1
    20    12    28    1
    21    13    21    2
    22    13    23    1
    23    14    19    1
    24    14    22    2
    25    14    23    1
    26    15    16    1
    27    16    20    1
    28    17    18    1
    29    18    24   am
    30    18    25    2
    31    19    29    1
    32    19    30    1
    33    19    31    1
    34    21    22    1
    35     1    32    1
    36     2    33    1
    37     3    34    1
    38     3    35    1
    39     4    36    1
    40     4    37    1
    41     5    38    1
    42     5    39    1
    43     6    40    1
    44     6    41    1
    45     7    42    1
    46     7    43    1
    47     8    44    1
    48    15    45    1
    49    16    46    1
    50    20    47    1
    51    20    48    1
    52    20    49    1
@<TRIPOS>SUBSTRUCTURE
     1 <0>         1 TEMP              0 ****  ****    0 ROOT

