
##########                                Name:        KIQ_901_2I78
##########                    Molecular_Weight:             446.375
##########                DOCK_Rotatable_Bonds:                   4
##########                       Formal_Charge:              0.9999
##########                     HBond_Acceptors:                  12
##########                        HBond_Donors:                   3
##########                         Heavy_Atoms:                  31
##########                            HA_RMSDs:               0.307
##########                            HA_RMSDh:               0.307
##########                            HA_RMSDm:               0.307
##########                          Grid_Score:         -161.870804
##########                     Grid_vdw_energy:          -45.564060
##########                      Grid_es_energy:         -116.306747
##########           Internal_energy_repulsive:           16.999519

@<TRIPOS>MOLECULE
KIQ_901_2I78
 49 52 1 0 0
SMALL
USER_CHARGES


@<TRIPOS>ATOM
      1 C1        -14.2452   -6.3250   57.8300 C.ar    1  <0>        -0.0172
      2 C2        -12.2482   -4.5302   58.5230 C.ar    1  <0>         0.0119
      3 C3        -21.4793   -3.9053   60.4985 C.3     1  <0>         0.0356
      4 C4        -20.3000   -4.3441   61.3693 C.3     1  <0>         0.0316
      5 C5        -16.9031   -5.5600   58.8225 C.3     1  <0>        -0.0220
      6 C6        -21.6184   -6.1943   62.4391 C.3     1  <0>         0.0728
      7 C7        -16.8682   -6.4953   61.6501 C.3     1  <0>         0.0206
      8 C8        -18.1683   -5.8095   59.6195 C.2     1  <0>        -0.0749
      9 C9        -14.4299   -5.4805   58.9242 C.ar    1  <0>        -0.0006
     10 C10       -13.0646   -6.2666   57.0939 C.ar    1  <0>         0.1588
     11 C11       -13.4218   -4.5945   59.2601 C.ar    1  <0>         0.1299
     12 C12       -12.0615   -5.3786   57.4329 C.ar    1  <0>         0.1611
     13 C13       -22.8179   -5.5156   61.8498 C.2     1  <0>         0.1431
     14 C14       -24.0066   -4.1845   60.6982 C.2     1  <0>         0.2295
     15 C15       -15.6756   -5.5200   59.7286 C.3     1  <0>         0.0335
     16 C16       -15.7195   -6.7195   60.6775 C.3     1  <0>        -0.0129
     17 C17       -18.1609   -6.2855   60.8896 C.2     1  <0>         0.0159
     18 C18       -19.3991   -6.6566   61.5789 C.2     1  <0>         0.2429
     19 C19       -24.4610   -3.0907   59.7761 C.3     1  <0>         0.4503
     20 N1        -14.4969   -6.9192   61.4245 N.4     1  <0>         0.2214
     21 N2        -24.1218   -5.8258   62.0840 N.2     1  <0>        -0.1350
     22 N3        -24.9119   -4.9478   61.3267 N.2     1  <0>        -0.1276
     23 N4        -22.7346   -4.4904   60.9838 N.pl3   1  <0>        -0.2641
     24 N5        -20.3950   -5.7677   61.7486 N.am    1  <0>        -0.2891
     25 O1        -19.4622   -7.7962   62.0192 O.2     1  <0>        -0.2703
     26 F1        -12.8854   -7.0721   56.0408 F       1  <0>        -0.2025
     27 F2        -13.5690   -3.7874   60.3081 F       1  <0>        -0.2051
     28 F3        -10.9153   -5.3488   56.7108 F       1  <0>        -0.2024
     29 F4        -25.7780   -3.1173   59.7965 F       1  <0>        -0.1633
     30 F5        -24.0617   -1.8966   60.1936 F       1  <0>        -0.1633
     31 F6        -24.0313   -3.3301   58.5426 F       1  <0>        -0.1633
     32 H1        -15.0192   -7.0255   57.5531 H       1  <0>         0.0651
     33 H2        -11.4788   -3.8224   58.7940 H       1  <0>         0.0676
     34 H3        -21.5595   -2.8087   60.5305 H       1  <0>         0.0484
     35 H4        -21.3049   -4.2387   59.4649 H       1  <0>         0.0484
     36 H5        -19.3688   -4.1919   60.8037 H       1  <0>         0.0480
     37 H6        -20.2930   -3.7353   62.2855 H       1  <0>         0.0480
     38 H7        -16.7783   -6.3714   58.0903 H       1  <0>         0.0315
     39 H8        -16.9941   -4.5943   58.3039 H       1  <0>         0.0315
     40 H9        -21.5418   -5.9302   63.5042 H       1  <0>         0.0543
     41 H10       -21.7316   -7.2832   62.3321 H       1  <0>         0.0543
     42 H11       -16.9693   -7.3759   62.3016 H       1  <0>         0.0370
     43 H12       -16.6580   -5.6049   62.2608 H       1  <0>         0.0370
     44 H13       -19.1198   -5.5983   59.1543 H       1  <0>         0.0577
     45 H14       -15.6837   -4.6011   60.3334 H       1  <0>         0.0408
     46 H15       -15.8552   -7.6243   60.0669 H       1  <0>         0.0859
     47 H16       -13.7383   -7.0671   60.7899 H       1  <0>         0.1997
     48 H17       -14.3116   -6.1103   61.9826 H       1  <0>         0.1997
     49 H18       -14.5957   -7.7181   62.0178 H       1  <0>         0.1997
@<TRIPOS>BOND
     1     1     9   ar
     2     1    10   ar
     3     2    11   ar
     4     2    12   ar
     5     3     4    1
     6     3    23    1
     7     4    24    1
     8     5     8    1
     9     5    15    1
    10     6    13    1
    11     6    24    1
    12     7    16    1
    13     7    17    1
    14     8    17    2
    15     9    11   ar
    16     9    15    1
    17    10    12   ar
    18    10    26    1
    19    11    27    1
    20    12    28    1
    21    13    21    2
    22    13    23    1
    23    14    19    1
    24    14    22    2
    25    14    23    1
    26    15    16    1
    27    16    20    1
    28    17    18    1
    29    18    24   am
    30    18    25    2
    31    19    29    1
    32    19    30    1
    33    19    31    1
    34    21    22    1
    35     1    32    1
    36     2    33    1
    37     3    34    1
    38     3    35    1
    39     4    36    1
    40     4    37    1
    41     5    38    1
    42     5    39    1
    43     6    40    1
    44     6    41    1
    45     7    42    1
    46     7    43    1
    47     8    44    1
    48    15    45    1
    49    16    46    1
    50    20    47    1
    51    20    48    1
    52    20    49    1
@<TRIPOS>SUBSTRUCTURE
     1 <0>         1 TEMP              0 ****  ****    0 ROOT

