
##########                                Name:        KIQ_901_2I78
##########                    Molecular_Weight:             446.375
##########                DOCK_Rotatable_Bonds:                   4
##########                       Formal_Charge:              0.9999
##########                     HBond_Acceptors:                  12
##########                        HBond_Donors:                   3
##########                         Heavy_Atoms:                  31
##########                            HA_RMSDs:               0.702
##########                            HA_RMSDh:               0.702
##########                            HA_RMSDm:               0.691
##########                          Grid_Score:         -158.702362
##########                     Grid_vdw_energy:          -42.990967
##########                      Grid_es_energy:         -115.711403
##########           Internal_energy_repulsive:           14.758531

@<TRIPOS>MOLECULE
KIQ_901_2I78
 49 52 1 0 0
SMALL
USER_CHARGES


@<TRIPOS>ATOM
      1 C1        -14.2277   -6.3352   58.0462 C.ar    1  <0>        -0.0172
      2 C2        -12.3024   -4.4714   58.7591 C.ar    1  <0>         0.0119
      3 C3        -21.4293   -3.4338   60.6937 C.3     1  <0>         0.0356
      4 C4        -20.3232   -4.1032   61.5123 C.3     1  <0>         0.0316
      5 C5        -16.9567   -5.4520   58.8152 C.3     1  <0>        -0.0220
      6 C6        -21.8402   -5.9505   62.2818 C.3     1  <0>         0.0728
      7 C7        -17.1239   -6.3971   61.6348 C.3     1  <0>         0.0206
      8 C8        -18.2755   -5.6739   59.5290 C.2     1  <0>        -0.0749
      9 C9        -14.4938   -5.4316   59.0743 C.ar    1  <0>        -0.0006
     10 C10       -13.0024   -6.3009   57.3855 C.ar    1  <0>         0.1588
     11 C11       -13.5206   -4.5114   59.4215 C.ar    1  <0>         0.1299
     12 C12       -12.0345   -5.3787   57.7353 C.ar    1  <0>         0.1611
     13 C13       -22.9527   -5.0826   61.7759 C.2     1  <0>         0.1431
     14 C14       -23.9765   -3.4934   60.8079 C.2     1  <0>         0.2295
     15 C15       -15.7887   -5.4441   59.7977 C.3     1  <0>         0.0335
     16 C16       -15.9211   -6.6454   60.7361 C.3     1  <0>        -0.0129
     17 C17       -18.3602   -6.1542   60.7947 C.2     1  <0>         0.0159
     18 C18       -19.6482   -6.4981   61.4021 C.2     1  <0>         0.2429
     19 C19       -24.2987   -2.2413   60.0452 C.3     1  <0>         0.4503
     20 N1        -14.7536   -6.8764   61.5584 N.4     1  <0>         0.2214
     21 N2        -24.2864   -5.2957   61.9407 N.2     1  <0>        -0.1350
     22 N3        -24.9678   -4.2472   61.3043 N.2     1  <0>        -0.1276
     23 N4        -22.7478   -3.9579   61.0681 N.pl3   1  <0>        -0.2641
     24 N5        -20.5618   -5.5503   61.6810 N.am    1  <0>        -0.2891
     25 O1        -19.8305   -7.6771   61.6726 O.2     1  <0>        -0.2703
     26 F1        -12.7450   -7.1634   56.3956 F       1  <0>        -0.2025
     27 F2        -13.7458   -3.6471   60.4083 F       1  <0>        -0.2051
     28 F3        -10.8441   -5.3726   57.0881 F       1  <0>        -0.2024
     29 F4        -25.4877   -1.8547   60.4603 F       1  <0>        -0.1633
     30 F5        -23.4316   -1.2709   60.3023 F       1  <0>        -0.1633
     31 F6        -24.3462   -2.5026   58.7441 F       1  <0>        -0.1633
     32 H1        -14.9734   -7.0630   57.7618 H       1  <0>         0.0651
     33 H2        -11.5610   -3.7367   59.0367 H       1  <0>         0.0676
     34 H3        -21.4081   -2.3502   60.8819 H       1  <0>         0.0484
     35 H4        -21.2550   -3.6326   59.6260 H       1  <0>         0.0484
     36 H5        -19.3650   -3.9629   60.9905 H       1  <0>         0.0480
     37 H6        -20.2878   -3.6340   62.5065 H       1  <0>         0.0480
     38 H7        -16.8046   -6.2637   58.0885 H       1  <0>         0.0315
     39 H8        -16.9917   -4.4826   58.2966 H       1  <0>         0.0315
     40 H9        -21.7722   -5.8486   63.3750 H       1  <0>         0.0543
     41 H10       -22.0508   -6.9972   62.0172 H       1  <0>         0.0543
     42 H11       -17.2868   -7.2772   62.2743 H       1  <0>         0.0370
     43 H12       -16.9321   -5.5140   62.2619 H       1  <0>         0.0370
     44 H13       -19.1903   -5.4387   59.0052 H       1  <0>         0.0577
     45 H14       -15.8137   -4.5273   60.4051 H       1  <0>         0.0408
     46 H15       -16.0389   -7.5447   60.1138 H       1  <0>         0.0859
     47 H16       -13.9598   -7.0402   60.9726 H       1  <0>         0.1997
     48 H17       -14.5852   -6.0741   62.1310 H       1  <0>         0.1997
     49 H18       -14.9086   -7.6748   62.1403 H       1  <0>         0.1997
@<TRIPOS>BOND
     1     1     9   ar
     2     1    10   ar
     3     2    11   ar
     4     2    12   ar
     5     3     4    1
     6     3    23    1
     7     4    24    1
     8     5     8    1
     9     5    15    1
    10     6    13    1
    11     6    24    1
    12     7    16    1
    13     7    17    1
    14     8    17    2
    15     9    11   ar
    16     9    15    1
    17    10    12   ar
    18    10    26    1
    19    11    27    1
    20    12    28    1
    21    13    21    2
    22    13    23    1
    23    14    19    1
    24    14    22    2
    25    14    23    1
    26    15    16    1
    27    16    20    1
    28    17    18    1
    29    18    24   am
    30    18    25    2
    31    19    29    1
    32    19    30    1
    33    19    31    1
    34    21    22    1
    35     1    32    1
    36     2    33    1
    37     3    34    1
    38     3    35    1
    39     4    36    1
    40     4    37    1
    41     5    38    1
    42     5    39    1
    43     6    40    1
    44     6    41    1
    45     7    42    1
    46     7    43    1
    47     8    44    1
    48    15    45    1
    49    16    46    1
    50    20    47    1
    51    20    48    1
    52    20    49    1
@<TRIPOS>SUBSTRUCTURE
     1 <0>         1 TEMP              0 ****  ****    0 ROOT

