
##########                                Name:        KIQ_901_2I78
##########                    Molecular_Weight:             446.375
##########                DOCK_Rotatable_Bonds:                   4
##########                       Formal_Charge:              0.9999
##########                     HBond_Acceptors:                  12
##########                        HBond_Donors:                   3
##########                         Heavy_Atoms:                  31
##########                            HA_RMSDs:               0.507
##########                            HA_RMSDh:               0.507
##########                            HA_RMSDm:               0.507
##########                          Grid_Score:         -161.504639
##########                     Grid_vdw_energy:          -45.731178
##########                      Grid_es_energy:         -115.773468
##########           Internal_energy_repulsive:           16.569712

@<TRIPOS>MOLECULE
KIQ_901_2I78
 49 52 1 0 0
SMALL
USER_CHARGES


@<TRIPOS>ATOM
      1 C1        -14.1249   -6.4494   57.8892 C.ar    1  <0>        -0.0172
      2 C2        -12.1188   -4.7532   58.7767 C.ar    1  <0>         0.0119
      3 C3        -21.3762   -3.7168   60.3159 C.3     1  <0>         0.0356
      4 C4        -20.2800   -4.3097   61.2039 C.3     1  <0>         0.0316
      5 C5        -16.8174   -5.6073   58.7157 C.3     1  <0>        -0.0220
      6 C6        -21.7747   -6.1495   62.0327 C.3     1  <0>         0.0728
      7 C7        -17.0201   -6.6310   61.5054 C.3     1  <0>         0.0206
      8 C8        -18.1448   -5.8306   59.4130 C.2     1  <0>        -0.0749
      9 C9        -14.3565   -5.6301   58.9935 C.ar    1  <0>        -0.0006
     10 C10       -12.8933   -6.4154   57.2401 C.ar    1  <0>         0.1588
     11 C11       -13.3435   -4.7934   59.4271 C.ar    1  <0>         0.1299
     12 C12       -11.8854   -5.5766   57.6764 C.ar    1  <0>         0.1611
     13 C13       -22.8918   -5.3411   61.4452 C.2     1  <0>         0.1431
     14 C14       -23.9235   -3.8364   60.3577 C.2     1  <0>         0.2295
     15 C15       -15.6572   -5.6448   59.7066 C.3     1  <0>         0.0335
     16 C16       -15.8140   -6.8707   60.6088 C.3     1  <0>        -0.0129
     17 C17       -18.2462   -6.3460   60.6636 C.2     1  <0>         0.0159
     18 C18       -19.5437   -6.6885   61.2512 C.2     1  <0>         0.2429
     19 C19       -24.2523   -2.6383   59.5154 C.3     1  <0>         0.4503
     20 N1        -14.6564   -7.1424   61.4326 N.4     1  <0>         0.2214
     21 N2        -24.2244   -5.5793   61.5823 N.2     1  <0>        -0.1350
     22 N3        -24.9111   -4.5866   60.8669 N.2     1  <0>        -0.1276
     23 N4        -22.6925   -4.2532   60.6805 N.pl3   1  <0>        -0.2641
     24 N5        -20.4884   -5.7507   61.4481 N.am    1  <0>        -0.2891
     25 O1        -19.7055   -7.8547   61.5833 O.2     1  <0>        -0.2703
     26 F1        -12.6686   -7.1968   56.1776 F       1  <0>        -0.2025
     27 F2        -13.5360   -4.0116   60.4868 F       1  <0>        -0.2051
     28 F3        -10.6903   -5.5702   57.0381 F       1  <0>        -0.2024
     29 F4        -25.4886   -2.3023   59.8222 F       1  <0>        -0.1633
     30 F5        -23.4605   -1.6103   59.7905 F       1  <0>        -0.1633
     31 F6        -24.1855   -2.9572   58.2280 F       1  <0>        -0.1633
     32 H1        -14.9019   -7.1115   57.5367 H       1  <0>         0.0651
     33 H2        -11.3455   -4.0834   59.1232 H       1  <0>         0.0676
     34 H3        -21.3873   -2.6241   60.4422 H       1  <0>         0.0484
     35 H4        -21.1639   -3.9710   59.2670 H       1  <0>         0.0484
     36 H5        -19.3098   -4.1741   60.7037 H       1  <0>         0.0480
     37 H6        -20.2871   -3.7842   62.1703 H       1  <0>         0.0480
     38 H7        -16.6712   -6.3998   57.9669 H       1  <0>         0.0315
     39 H8        -16.8345   -4.6229   58.2252 H       1  <0>         0.0315
     40 H9        -21.7433   -5.9843   63.1198 H       1  <0>         0.0543
     41 H10       -21.9514   -7.2147   61.8224 H       1  <0>         0.0543
     42 H11       -17.2006   -7.5268   62.1179 H       1  <0>         0.0370
     43 H12       -16.8205   -5.7693   62.1593 H       1  <0>         0.0370
     44 H13       -19.0520   -5.5670   58.8896 H       1  <0>         0.0577
     45 H14       -15.6737   -4.7457   60.3403 H       1  <0>         0.0408
     46 H15       -15.9398   -7.7498   59.9597 H       1  <0>         0.0859
     47 H16       -13.8605   -7.3006   60.8482 H       1  <0>         0.1997
     48 H17       -14.4810   -6.3594   62.0294 H       1  <0>         0.1997
     49 H18       -14.8274   -7.9549   61.9899 H       1  <0>         0.1997
@<TRIPOS>BOND
     1     1     9   ar
     2     1    10   ar
     3     2    11   ar
     4     2    12   ar
     5     3     4    1
     6     3    23    1
     7     4    24    1
     8     5     8    1
     9     5    15    1
    10     6    13    1
    11     6    24    1
    12     7    16    1
    13     7    17    1
    14     8    17    2
    15     9    11   ar
    16     9    15    1
    17    10    12   ar
    18    10    26    1
    19    11    27    1
    20    12    28    1
    21    13    21    2
    22    13    23    1
    23    14    19    1
    24    14    22    2
    25    14    23    1
    26    15    16    1
    27    16    20    1
    28    17    18    1
    29    18    24   am
    30    18    25    2
    31    19    29    1
    32    19    30    1
    33    19    31    1
    34    21    22    1
    35     1    32    1
    36     2    33    1
    37     3    34    1
    38     3    35    1
    39     4    36    1
    40     4    37    1
    41     5    38    1
    42     5    39    1
    43     6    40    1
    44     6    41    1
    45     7    42    1
    46     7    43    1
    47     8    44    1
    48    15    45    1
    49    16    46    1
    50    20    47    1
    51    20    48    1
    52    20    49    1
@<TRIPOS>SUBSTRUCTURE
     1 <0>         1 TEMP              0 ****  ****    0 ROOT

