
##########                                Name:        KIQ_901_2I78
##########                    Molecular_Weight:             446.375
##########                DOCK_Rotatable_Bonds:                   4
##########                       Formal_Charge:              0.9999
##########                     HBond_Acceptors:                  12
##########                        HBond_Donors:                   3
##########                         Heavy_Atoms:                  31
##########                            HA_RMSDs:               1.218
##########                            HA_RMSDh:               1.218
##########                            HA_RMSDm:               1.128
##########                          Grid_Score:         -157.675049
##########                     Grid_vdw_energy:          -39.899582
##########                      Grid_es_energy:         -117.775475
##########           Internal_energy_repulsive:           13.441619

@<TRIPOS>MOLECULE
KIQ_901_2I78
 49 52 1 0 0
SMALL
USER_CHARGES


@<TRIPOS>ATOM
      1 C1        -13.9759   -6.5206   57.6873 C.ar    1  <0>        -0.0172
      2 C2        -11.9233   -4.7946   58.3924 C.ar    1  <0>         0.0119
      3 C3        -20.7082   -3.2299   61.1872 C.3     1  <0>         0.0356
      4 C4        -19.6352   -4.1323   61.8006 C.3     1  <0>         0.0316
      5 C5        -16.6218   -5.5663   58.5954 C.3     1  <0>        -0.0220
      6 C6        -21.3015   -5.9105   62.4066 C.3     1  <0>         0.0728
      7 C7        -16.7171   -6.5366   61.4098 C.3     1  <0>         0.0206
      8 C8        -17.9198   -5.7448   59.3579 C.2     1  <0>        -0.0749
      9 C9        -14.1518   -5.6451   58.7583 C.ar    1  <0>        -0.0006
     10 C10       -12.7762   -6.5273   56.9802 C.ar    1  <0>         0.1588
     11 C11       -13.1161   -4.7941   59.1008 C.ar    1  <0>         0.1299
     12 C12       -11.7455   -5.6740   57.3255 C.ar    1  <0>         0.1611
     13 C13       -22.3372   -4.8624   62.1317 C.2     1  <0>         0.1431
     14 C14       -23.2321   -3.0417   61.5028 C.2     1  <0>         0.2295
     15 C15       -15.4174   -5.6154   59.5315 C.3     1  <0>         0.0335
     16 C16       -15.5607   -6.8214   60.4624 C.3     1  <0>        -0.0129
     17 C17       -17.9744   -6.2360   60.6212 C.2     1  <0>         0.0159
     18 C18       -19.2505   -6.5362   61.2749 C.2     1  <0>         0.2429
     19 C19       -23.4569   -1.6578   60.9671 C.3     1  <0>         0.4503
     20 N1        -14.3723   -7.1073   61.2360 N.4     1  <0>         0.2214
     21 N2        -23.6727   -4.9591   62.3730 N.2     1  <0>        -0.1350
     22 N3        -24.2689   -3.7577   61.9609 N.2     1  <0>        -0.1276
     23 N4        -22.0508   -3.6669   61.5869 N.pl3   1  <0>        -0.2641
     24 N5        -20.0280   -5.5550   61.7686 N.am    1  <0>        -0.2891
     25 O1        -19.5497   -7.7178   61.3789 O.2     1  <0>        -0.2703
     26 F1        -12.6051   -7.3628   55.9493 F       1  <0>        -0.2025
     27 F2        -13.2551   -3.9585   60.1273 F       1  <0>        -0.2051
     28 F3        -10.5819   -5.7075   56.6323 F       1  <0>        -0.2024
     29 F4        -24.6567   -1.2971   61.3746 F       1  <0>        -0.1633
     30 F5        -22.5750   -0.7929   61.4506 F       1  <0>        -0.1633
     31 F6        -23.4258   -1.6750   59.6396 F       1  <0>        -0.1633
     32 H1        -14.7714   -7.1947   57.4058 H       1  <0>         0.0651
     33 H2        -11.1319   -4.1132   58.6677 H       1  <0>         0.0676
     34 H3        -20.5494   -2.1981   61.5341 H       1  <0>         0.0484
     35 H4        -20.6290   -3.2735   60.0910 H       1  <0>         0.0484
     36 H5        -18.7038   -4.0112   61.2280 H       1  <0>         0.0480
     37 H6        -19.4802   -3.8333   62.8477 H       1  <0>         0.0480
     38 H7        -16.5301   -6.3749   57.8553 H       1  <0>         0.0315
     39 H8        -16.6386   -4.5904   58.0883 H       1  <0>         0.0315
     40 H9        -21.1501   -5.9914   63.4931 H       1  <0>         0.0543
     41 H10       -21.6488   -6.8742   62.0057 H       1  <0>         0.0543
     42 H11       -16.8898   -7.4170   62.0464 H       1  <0>         0.0370
     43 H12       -16.4664   -5.6690   62.0378 H       1  <0>         0.0370
     44 H13       -18.8441   -5.4680   58.8728 H       1  <0>         0.0577
     45 H14       -15.3826   -4.7054   60.1487 H       1  <0>         0.0408
     46 H15       -15.7379   -7.7081   59.8362 H       1  <0>         0.0859
     47 H16       -13.6089   -7.2952   60.6181 H       1  <0>         0.1997
     48 H17       -14.1504   -6.3188   61.8096 H       1  <0>         0.1997
     49 H18       -14.5361   -7.9057   61.8156 H       1  <0>         0.1997
@<TRIPOS>BOND
     1     1     9   ar
     2     1    10   ar
     3     2    11   ar
     4     2    12   ar
     5     3     4    1
     6     3    23    1
     7     4    24    1
     8     5     8    1
     9     5    15    1
    10     6    13    1
    11     6    24    1
    12     7    16    1
    13     7    17    1
    14     8    17    2
    15     9    11   ar
    16     9    15    1
    17    10    12   ar
    18    10    26    1
    19    11    27    1
    20    12    28    1
    21    13    21    2
    22    13    23    1
    23    14    19    1
    24    14    22    2
    25    14    23    1
    26    15    16    1
    27    16    20    1
    28    17    18    1
    29    18    24   am
    30    18    25    2
    31    19    29    1
    32    19    30    1
    33    19    31    1
    34    21    22    1
    35     1    32    1
    36     2    33    1
    37     3    34    1
    38     3    35    1
    39     4    36    1
    40     4    37    1
    41     5    38    1
    42     5    39    1
    43     6    40    1
    44     6    41    1
    45     7    42    1
    46     7    43    1
    47     8    44    1
    48    15    45    1
    49    16    46    1
    50    20    47    1
    51    20    48    1
    52    20    49    1
@<TRIPOS>SUBSTRUCTURE
     1 <0>         1 TEMP              0 ****  ****    0 ROOT

