
##########                                Name:        KIQ_901_2I78
##########                    Molecular_Weight:             446.375
##########                DOCK_Rotatable_Bonds:                   4
##########                       Formal_Charge:              0.9999
##########                     HBond_Acceptors:                  12
##########                        HBond_Donors:                   3
##########                         Heavy_Atoms:                  31
##########                            HA_RMSDs:               0.855
##########                            HA_RMSDh:               0.855
##########                            HA_RMSDm:               0.803
##########                          Grid_Score:         -157.322098
##########                     Grid_vdw_energy:          -40.897034
##########                      Grid_es_energy:         -116.425064
##########           Internal_energy_repulsive:           14.245340

@<TRIPOS>MOLECULE
KIQ_901_2I78
 49 52 1 0 0
SMALL
USER_CHARGES


@<TRIPOS>ATOM
      1 C1        -14.2030   -6.6252   57.9075 C.ar    1  <0>        -0.0172
      2 C2        -12.1744   -4.8705   58.6111 C.ar    1  <0>         0.0119
      3 C3        -21.1908   -3.3158   60.7004 C.3     1  <0>         0.0356
      4 C4        -20.1133   -4.0669   61.4857 C.3     1  <0>         0.0316
      5 C5        -16.8794   -5.6696   58.6786 C.3     1  <0>        -0.0220
      6 C6        -21.7278   -5.8296   62.2550 C.3     1  <0>         0.0728
      7 C7        -17.0644   -6.4540   61.5460 C.3     1  <0>         0.0206
      8 C8        -18.2018   -5.8151   59.4055 C.2     1  <0>        -0.0749
      9 C9        -14.4161   -5.7041   58.9325 C.ar    1  <0>        -0.0006
     10 C10       -12.9786   -6.6626   57.2453 C.ar    1  <0>         0.1588
     11 C11       -13.3921   -4.8391   59.2751 C.ar    1  <0>         0.1299
     12 C12       -11.9596   -5.7953   57.5904 C.ar    1  <0>         0.1611
     13 C13       -22.7934   -4.8857   61.7857 C.2     1  <0>         0.1431
     14 C14       -23.7341   -3.2193   60.8643 C.2     1  <0>         0.2295
     15 C15       -15.7087   -5.6407   59.6574 C.3     1  <0>         0.0335
     16 C16       -15.8717   -6.7847   60.6605 C.3     1  <0>        -0.0129
     17 C17       -18.2960   -6.2229   60.6957 C.2     1  <0>         0.0159
     18 C18       -19.5912   -6.4967   61.3230 C.2     1  <0>         0.2429
     19 C19       -23.9919   -1.9365   60.1288 C.3     1  <0>         0.4503
     20 N1        -14.7087   -7.0031   61.4924 N.4     1  <0>         0.2214
     21 N2        -24.1344   -5.0185   61.9735 N.2     1  <0>        -0.1350
     22 N3        -24.7610   -3.9187   61.3680 N.2     1  <0>        -0.1276
     23 N4        -22.5321   -3.7636   61.0924 N.pl3   1  <0>        -0.2641
     24 N5        -20.4385   -5.4991   61.6355 N.am    1  <0>        -0.2891
     25 O1        -19.8416   -7.6667   61.5778 O.2     1  <0>        -0.2703
     26 F1        -12.7718   -7.5420   56.2584 F       1  <0>        -0.2025
     27 F2        -13.5667   -3.9599   60.2588 F       1  <0>        -0.2051
     28 F3        -10.7717   -5.8589   56.9418 F       1  <0>        -0.2024
     29 F4        -25.2216   -1.5778   60.4366 F       1  <0>        -0.1633
     30 F5        -23.1673   -0.9722   60.5158 F       1  <0>        -0.1633
     31 F6        -23.9034   -2.1391   58.8193 F       1  <0>        -0.1633
     32 H1        -14.9890   -7.3107   57.6268 H       1  <0>         0.0651
     33 H2        -11.3923   -4.1779   58.8851 H       1  <0>         0.0676
     34 H3        -21.0984   -2.2391   60.9057 H       1  <0>         0.0484
     35 H4        -21.0494   -3.5064   59.6263 H       1  <0>         0.0484
     36 H5        -19.1582   -3.9772   60.9473 H       1  <0>         0.0480
     37 H6        -20.0300   -3.6182   62.4866 H       1  <0>         0.0480
     38 H7        -16.7522   -6.5238   57.9973 H       1  <0>         0.0315
     39 H8        -16.8890   -4.7295   58.1077 H       1  <0>         0.0315
     40 H9        -21.6330   -5.7514   63.3482 H       1  <0>         0.0543
     41 H10       -22.0083   -6.8565   61.9776 H       1  <0>         0.0543
     42 H11       -17.2499   -7.2929   62.2330 H       1  <0>         0.0370
     43 H12       -16.8461   -5.5436   62.1235 H       1  <0>         0.0370
     44 H13       -19.1112   -5.5833   58.8710 H       1  <0>         0.0577
     45 H14       -15.7063   -4.6917   60.2138 H       1  <0>         0.0408
     46 H15       -16.0165   -7.7130   60.0885 H       1  <0>         0.0859
     47 H16       -13.9216   -7.2208   60.9153 H       1  <0>         0.1997
     48 H17       -14.5162   -6.1756   62.0199 H       1  <0>         0.1997
     49 H18       -14.8841   -7.7637   62.1174 H       1  <0>         0.1997
@<TRIPOS>BOND
     1     1     9   ar
     2     1    10   ar
     3     2    11   ar
     4     2    12   ar
     5     3     4    1
     6     3    23    1
     7     4    24    1
     8     5     8    1
     9     5    15    1
    10     6    13    1
    11     6    24    1
    12     7    16    1
    13     7    17    1
    14     8    17    2
    15     9    11   ar
    16     9    15    1
    17    10    12   ar
    18    10    26    1
    19    11    27    1
    20    12    28    1
    21    13    21    2
    22    13    23    1
    23    14    19    1
    24    14    22    2
    25    14    23    1
    26    15    16    1
    27    16    20    1
    28    17    18    1
    29    18    24   am
    30    18    25    2
    31    19    29    1
    32    19    30    1
    33    19    31    1
    34    21    22    1
    35     1    32    1
    36     2    33    1
    37     3    34    1
    38     3    35    1
    39     4    36    1
    40     4    37    1
    41     5    38    1
    42     5    39    1
    43     6    40    1
    44     6    41    1
    45     7    42    1
    46     7    43    1
    47     8    44    1
    48    15    45    1
    49    16    46    1
    50    20    47    1
    51    20    48    1
    52    20    49    1
@<TRIPOS>SUBSTRUCTURE
     1 <0>         1 TEMP              0 ****  ****    0 ROOT

