
##########                                Name:        AGE_500_3F07
##########                    Molecular_Weight:             286.331
##########                DOCK_Rotatable_Bonds:                   8
##########                       Formal_Charge:         0.000100002
##########                     HBond_Acceptors:                   5
##########                        HBond_Donors:                   2
##########                         Heavy_Atoms:                  21
##########                            HA_RMSDs:               0.467
##########                            HA_RMSDh:               0.467
##########                            HA_RMSDm:               0.467
##########                          Grid_Score:          -28.754557
##########                     Grid_vdw_energy:          -29.470774
##########                      Grid_es_energy:            0.716217
##########           Internal_energy_repulsive:            3.014398

@<TRIPOS>MOLECULE
AGE_500_3F07
 39 40 1 0 0
SMALL
USER_CHARGES


@<TRIPOS>ATOM
      1 C1        -28.8664   31.7407  -40.5803 C.3     1  <0>         0.0050
      2 C2        -22.8013   31.7382  -45.3121 C.ar    1  <0>        -0.0617
      3 C3        -24.0585   31.3064  -44.7036 C.ar    1  <0>        -0.0615
      4 C4        -21.6711   32.1047  -44.4509 C.ar    1  <0>        -0.0615
      5 C5        -24.1844   31.2429  -43.2400 C.ar    1  <0>        -0.0582
      6 C6        -21.8117   32.0337  -43.0014 C.ar    1  <0>        -0.0582
      7 C7        -26.1259   29.6775  -39.3394 C.2     1  <0>        -0.0328
      8 C8        -26.4346   31.7861  -40.2026 C.2     1  <0>         0.0067
      9 C9        -28.6493   28.8000  -39.4229 C.3     1  <0>        -0.0060
     10 C10       -28.7385   27.6076  -38.6875 C.3     1  <0>         0.0311
     11 C11       -22.9910   31.6068  -40.7881 C.3     1  <0>         0.0357
     12 C12       -23.0608   31.6060  -42.3428 C.ar    1  <0>        -0.0399
     13 C13       -25.4640   30.9133  -39.7072 C.2     1  <0>         0.0331
     14 C14       -27.5080   29.7877  -39.6122 C.2     1  <0>         0.0113
     15 C15       -29.7909   26.5271  -39.0084 C.2     1  <0>         0.2358
     16 C16       -23.9754   31.2753  -39.5926 C.2     1  <0>         0.1687
     17 N1        -30.1331   25.7145  -37.9712 N.am    1  <0>        -0.1975
     18 N2        -27.6086   31.1055  -40.1331 N.pl3   1  <0>        -0.3121
     19 O1        -31.0214   24.7455  -38.1162 O.3     1  <0>        -0.2952
     20 O2        -30.3138   26.3597  -40.0997 O.2     1  <0>        -0.2737
     21 O3        -23.5472   31.3085  -38.4557 O.2     1  <0>        -0.2917
     22 H1        -29.7010   31.0368  -40.4468 H       1  <0>         0.0431
     23 H2        -29.0517   32.6463  -39.9840 H       1  <0>         0.0431
     24 H3        -28.7823   32.0122  -41.6429 H       1  <0>         0.0431
     25 H4        -22.7052   31.7871  -46.3867 H       1  <0>         0.0618
     26 H5        -24.8953   31.0338  -45.3295 H       1  <0>         0.0618
     27 H6        -20.7379   32.4260  -44.8894 H       1  <0>         0.0618
     28 H7        -25.1205   30.9232  -42.8065 H       1  <0>         0.0620
     29 H8        -20.9675   32.3052  -42.3849 H       1  <0>         0.0620
     30 H9        -25.6390   28.8084  -38.9222 H       1  <0>         0.0640
     31 H10       -26.2838   32.7922  -40.5654 H       1  <0>         0.0790
     32 H11       -28.8508   28.4647  -40.4510 H       1  <0>         0.0330
     33 H12       -29.4340   29.4227  -38.9685 H       1  <0>         0.0330
     34 H13       -27.7633   27.1135  -38.8093 H       1  <0>         0.0363
     35 H14       -28.9403   27.9159  -37.6510 H       1  <0>         0.0363
     36 H15       -22.1835   30.8817  -40.6088 H       1  <0>         0.0394
     37 H16       -22.7528   32.6612  -40.5842 H       1  <0>         0.0394
     38 H17       -29.7030   25.8535  -37.0792 H       1  <0>         0.1822
     39 H18       -31.1852   24.6012  -39.0407 H       1  <0>         0.2414
@<TRIPOS>BOND
     1     1    18    1
     2     2     3   ar
     3     2     4   ar
     4     3     5   ar
     5     4     6   ar
     6     5    12   ar
     7     6    12   ar
     8     7    13    1
     9     7    14    2
    10     8    13    2
    11     8    18    1
    12     9    10    1
    13     9    14    1
    14    10    15    1
    15    11    12    1
    16    11    16    1
    17    13    16    1
    18    14    18    1
    19    15    17   am
    20    15    20    2
    21    16    21    2
    22    17    19    1
    23     1    22    1
    24     1    23    1
    25     1    24    1
    26     2    25    1
    27     3    26    1
    28     4    27    1
    29     5    28    1
    30     6    29    1
    31     7    30    1
    32     8    31    1
    33     9    32    1
    34     9    33    1
    35    10    34    1
    36    10    35    1
    37    11    36    1
    38    11    37    1
    39    17    38    1
    40    19    39    1
@<TRIPOS>SUBSTRUCTURE
     1 <0>         1 TEMP              0 ****  ****    0 ROOT

