
##########                                Name:          L8I_1_3M2W
##########                    Molecular_Weight:             387.436
##########                DOCK_Rotatable_Bonds:                   1
##########                       Formal_Charge:              0.9998
##########                     HBond_Acceptors:                   6
##########                        HBond_Donors:                   2
##########                         Heavy_Atoms:                  29
##########                            HA_RMSDs:               1.508
##########                            HA_RMSDh:               1.508
##########                            HA_RMSDm:               1.220
##########                          Grid_Score:         -108.737549
##########                     Grid_vdw_energy:          -49.281769
##########                      Grid_es_energy:          -59.455780
##########           Internal_energy_repulsive:            5.336076

@<TRIPOS>MOLECULE
L8I_1_3M2W
 49 54 1 0 0
SMALL
USER_CHARGES


@<TRIPOS>ATOM
      1 C1         37.7404    4.9966   23.8505 C.3     1  <0>        -0.0430
      2 C2         33.6942    2.9011   12.8688 C.ar    1  <0>        -0.0610
      3 C3         33.3119    1.8400   13.6954 C.ar    1  <0>        -0.0590
      4 C4         34.8001    3.6757   13.2012 C.ar    1  <0>        -0.0498
      5 C5         34.0091    1.5692   14.8607 C.ar    1  <0>        -0.0258
      6 C6         36.8688    4.7669   15.9618 C.ar    1  <0>        -0.0264
      7 C7         38.4793    5.4273   13.8001 C.ar    1  <0>         0.0321
      8 C8         39.9939    6.8720   15.2416 C.3     1  <0>        -0.0216
      9 C9         39.8256    7.8705   16.4178 C.3     1  <0>        -0.0211
     10 C10        38.8218    5.2160   21.5932 C.3     1  <0>        -0.0110
     11 C11        36.8523    6.0164   21.6744 C.3     1  <0>        -0.0110
     12 C12        38.6722    7.7968   21.7937 C.2     1  <0>         0.0310
     13 C13        35.4996    3.3954   14.3627 C.ar    1  <0>         0.0355
     14 C14        35.1111    2.3467   15.1967 C.ar    1  <0>         0.1325
     15 C15        37.9689    5.5975   16.1381 C.ar    1  <0>         0.0030
     16 C16        36.6414    4.2670   14.6771 C.ar    1  <0>         0.0743
     17 C17        38.7799    5.9491   15.0582 C.ar    1  <0>        -0.0200
     18 C18        39.1502    7.1975   17.5760 C.2     1  <0>        -0.0115
     19 C19        39.2251    7.4883   19.0130 C.2     1  <0>         0.0644
     20 C20        38.3017    6.1713   17.4656 C.2     1  <0>         0.0428
     21 C21        38.3904    6.5880   19.5735 C.2     1  <0>         0.0428
     22 C22        39.9357    8.5173   19.7883 C.2     1  <0>         0.2789
     23 C23        38.1791    6.5211   21.0676 C.3     1  <0>         0.1236
     24 N1         37.8680    5.8303   18.6363 N.pl3   1  <0>        -0.3155
     25 N2         37.4312    4.6128   13.6440 N.ar    1  <0>        -0.2546
     26 N3         39.6420    8.6396   21.0963 N.2     1  <0>        -0.2200
     27 N4         37.5942    4.9187   22.3665 N.4     1  <0>         0.2352
     28 O1         40.7285    9.2903   19.2657 O.2     1  <0>        -0.2652
     29 F1         35.7734    2.0544   16.3212 F       1  <0>        -0.2048
     30 H1         36.7777    4.7600   24.3273 H       1  <0>         0.0778
     31 H2         38.5010    4.2744   24.1822 H       1  <0>         0.0778
     32 H3         38.0505    6.0128   24.1354 H       1  <0>         0.0778
     33 H4         33.1312    3.1188   11.9732 H       1  <0>         0.0618
     34 H5         32.4658    1.2267   13.4228 H       1  <0>         0.0618
     35 H6         35.1102    4.4876   12.5601 H       1  <0>         0.0625
     36 H7         33.6987    0.7593   15.5042 H       1  <0>         0.0646
     37 H8         36.2158    4.5176   16.7851 H       1  <0>         0.0645
     38 H9         39.0948    5.6821   12.9500 H       1  <0>         0.0833
     39 H10        40.1319    7.4493   14.3155 H       1  <0>         0.0317
     40 H11        40.8760    6.2464   15.4431 H       1  <0>         0.0317
     41 H12        40.8166    8.2280   16.7342 H       1  <0>         0.0317
     42 H13        39.2128    8.7216   16.0858 H       1  <0>         0.0317
     43 H14        39.1167    4.4745   20.8361 H       1  <0>         0.0829
     44 H15        39.7517    5.3245   22.1706 H       1  <0>         0.0829
     45 H16        36.3028    6.7215   22.3154 H       1  <0>         0.0829
     46 H17        36.0690    5.7118   20.9647 H       1  <0>         0.0829
     47 H18        38.3130    8.0544   22.7791 H       1  <0>         0.0797
     48 H19        37.2202    5.0875   18.8052 H       1  <0>         0.1519
     49 H20        37.1945    4.0021   22.3585 H       1  <0>         0.2031
@<TRIPOS>BOND
     1     1    27    1
     2     2     3   ar
     3     2     4   ar
     4     3     5   ar
     5     4    13   ar
     6     5    14   ar
     7     6    15   ar
     8     6    16   ar
     9     7    17   ar
    10     7    25   ar
    11     8     9    1
    12     8    17    1
    13     9    18    1
    14    10    23    1
    15    10    27    1
    16    11    23    1
    17    11    27    1
    18    12    23    1
    19    12    26    2
    20    13    14   ar
    21    13    16    1
    22    14    29    1
    23    15    17   ar
    24    15    20    1
    25    16    25   ar
    26    18    19    1
    27    18    20    2
    28    19    21    2
    29    19    22    1
    30    20    24    1
    31    21    23    1
    32    21    24    1
    33    22    26    1
    34    22    28    2
    35     1    30    1
    36     1    31    1
    37     1    32    1
    38     2    33    1
    39     3    34    1
    40     4    35    1
    41     5    36    1
    42     6    37    1
    43     7    38    1
    44     8    39    1
    45     8    40    1
    46     9    41    1
    47     9    42    1
    48    10    43    1
    49    10    44    1
    50    11    45    1
    51    11    46    1
    52    12    47    1
    53    24    48    1
    54    27    49    1
@<TRIPOS>SUBSTRUCTURE
     1 <0>         1 TEMP              0 ****  ****    0 ROOT

