
##########                                Name:          L8I_1_3M2W
##########                    Molecular_Weight:             387.436
##########                DOCK_Rotatable_Bonds:                   1
##########                       Formal_Charge:              0.9998
##########                     HBond_Acceptors:                   6
##########                        HBond_Donors:                   2
##########                         Heavy_Atoms:                  29
##########                            HA_RMSDs:               0.920
##########                            HA_RMSDh:               0.920
##########                            HA_RMSDm:               0.799
##########                          Grid_Score:         -117.061539
##########                     Grid_vdw_energy:          -57.962158
##########                      Grid_es_energy:          -59.099380
##########           Internal_energy_repulsive:            8.121279

@<TRIPOS>MOLECULE
L8I_1_3M2W
 49 54 1 0 0
SMALL
USER_CHARGES


@<TRIPOS>ATOM
      1 C1         37.5404    4.4321   23.4509 C.3     1  <0>        -0.0430
      2 C2         34.3036    3.4494   11.9625 C.ar    1  <0>        -0.0610
      3 C3         33.6656    2.4966   12.7628 C.ar    1  <0>        -0.0590
      4 C4         35.4138    4.1317   12.4479 C.ar    1  <0>        -0.0498
      5 C5         34.1126    2.2448   14.0490 C.ar    1  <0>        -0.0258
      6 C6         37.1871    5.0052   15.5395 C.ar    1  <0>        -0.0264
      7 C7         38.9684    5.7798   13.5571 C.ar    1  <0>         0.0321
      8 C8         40.4518    6.9948   15.2251 C.3     1  <0>        -0.0216
      9 C9         40.2542    7.8842   16.4817 C.3     1  <0>        -0.0211
     10 C10        38.7794    4.8065   21.2973 C.3     1  <0>        -0.0110
     11 C11        36.8501    5.7024   21.3357 C.3     1  <0>        -0.0110
     12 C12        38.7424    7.3606   21.7425 C.2     1  <0>         0.0310
     13 C13        35.8626    3.8700   13.7312 C.ar    1  <0>         0.0355
     14 C14        35.2187    2.9306   14.5369 C.ar    1  <0>         0.1325
     15 C15        38.3120    5.7536   15.8646 C.ar    1  <0>         0.0030
     16 C16        37.0219    4.6436   14.2001 C.ar    1  <0>         0.0743
     17 C17        39.2094    6.1617   14.8768 C.ar    1  <0>        -0.0200
     18 C18        39.4711    7.1417   17.5237 C.2     1  <0>        -0.0115
     19 C19        39.4639    7.2893   18.9843 C.2     1  <0>         0.0644
     20 C20        38.5830    6.1788   17.2603 C.2     1  <0>         0.0428
     21 C21        38.5509    6.3867   19.4005 C.2     1  <0>         0.0428
     22 C22        40.1704    8.1990   19.8999 C.2     1  <0>         0.2789
     23 C23        38.2374    6.1892   20.8647 C.3     1  <0>         0.1236
     24 N1         38.0560    5.7518   18.3625 N.pl3   1  <0>        -0.3155
     25 N2         37.8947    5.0426   13.2569 N.ar    1  <0>        -0.2546
     26 N3         39.7963    8.2117   21.1929 N.2     1  <0>        -0.2200
     27 N4         37.4899    4.5045   21.9603 N.4     1  <0>         0.2352
     28 O1         41.0329    8.9737   19.5062 O.2     1  <0>        -0.2652
     29 F1         35.6362    2.6579   15.7778 F       1  <0>        -0.2048
     30 H1         36.5377    4.2042   23.8417 H       1  <0>         0.0778
     31 H2         38.2411    3.6409   23.7559 H       1  <0>         0.0778
     32 H3         37.8798    5.3979   23.8535 H       1  <0>         0.0778
     33 H4         33.9346    3.6552   10.9685 H       1  <0>         0.0618
     34 H5         32.8172    1.9527   12.3746 H       1  <0>         0.0618
     35 H6         35.9207    4.8584   11.8302 H       1  <0>         0.0625
     36 H7         33.6053    1.5203   14.6687 H       1  <0>         0.0646
     37 H8         36.4692    4.7147   16.2923 H       1  <0>         0.0645
     38 H9         39.6509    6.0804   12.7761 H       1  <0>         0.0833
     39 H10        40.6792    7.6496   14.3709 H       1  <0>         0.0317
     40 H11        41.2871    6.3054   15.4178 H       1  <0>         0.0317
     41 H12        41.2380    8.1549   16.8923 H       1  <0>         0.0317
     42 H13        39.7070    8.7954   16.1982 H       1  <0>         0.0317
     43 H14        39.0878    4.1256   20.4904 H       1  <0>         0.0829
     44 H15        39.6728    4.8081   21.9390 H       1  <0>         0.0829
     45 H16        36.2940    6.3720   22.0081 H       1  <0>         0.0829
     46 H17        36.1021    5.5104   20.5523 H       1  <0>         0.0829
     47 H18        38.3311    7.5422   22.7245 H       1  <0>         0.0797
     48 H19        37.3631    5.0330   18.4169 H       1  <0>         0.1519
     49 H20        37.0476    3.6161   21.8371 H       1  <0>         0.2031
@<TRIPOS>BOND
     1     1    27    1
     2     2     3   ar
     3     2     4   ar
     4     3     5   ar
     5     4    13   ar
     6     5    14   ar
     7     6    15   ar
     8     6    16   ar
     9     7    17   ar
    10     7    25   ar
    11     8     9    1
    12     8    17    1
    13     9    18    1
    14    10    23    1
    15    10    27    1
    16    11    23    1
    17    11    27    1
    18    12    23    1
    19    12    26    2
    20    13    14   ar
    21    13    16    1
    22    14    29    1
    23    15    17   ar
    24    15    20    1
    25    16    25   ar
    26    18    19    1
    27    18    20    2
    28    19    21    2
    29    19    22    1
    30    20    24    1
    31    21    23    1
    32    21    24    1
    33    22    26    1
    34    22    28    2
    35     1    30    1
    36     1    31    1
    37     1    32    1
    38     2    33    1
    39     3    34    1
    40     4    35    1
    41     5    36    1
    42     6    37    1
    43     7    38    1
    44     8    39    1
    45     8    40    1
    46     9    41    1
    47     9    42    1
    48    10    43    1
    49    10    44    1
    50    11    45    1
    51    11    46    1
    52    12    47    1
    53    24    48    1
    54    27    49    1
@<TRIPOS>SUBSTRUCTURE
     1 <0>         1 TEMP              0 ****  ****    0 ROOT

