
##########                                Name:          L8I_1_3M2W
##########                    Molecular_Weight:             387.436
##########                DOCK_Rotatable_Bonds:                   1
##########                       Formal_Charge:              0.9998
##########                     HBond_Acceptors:                   6
##########                        HBond_Donors:                   2
##########                         Heavy_Atoms:                  29
##########                            HA_RMSDs:               7.386
##########                            HA_RMSDh:               6.926
##########                            HA_RMSDm:               5.831
##########                          Grid_Score:         -106.477051
##########                     Grid_vdw_energy:          -46.349590
##########                      Grid_es_energy:          -60.127457
##########           Internal_energy_repulsive:            8.274598

@<TRIPOS>MOLECULE
L8I_1_3M2W
 49 54 1 0 0
SMALL
USER_CHARGES


@<TRIPOS>ATOM
      1 C1         38.7602    8.0704   28.4990 C.3     1  <0>        -0.0430
      2 C2         41.2535    7.1225   16.8212 C.ar    1  <0>        -0.0610
      3 C3         41.9933    8.1418   17.4289 C.ar    1  <0>        -0.0590
      4 C4         40.1482    6.5852   17.4717 C.ar    1  <0>        -0.0498
      5 C5         41.6518    8.6039   18.6888 C.ar    1  <0>        -0.0258
      6 C6         38.5538    6.2855   20.7650 C.ar    1  <0>        -0.0264
      7 C7         36.6091    5.3210   19.0356 C.ar    1  <0>         0.0321
      8 C8         35.1860    4.4585   20.9565 C.3     1  <0>        -0.0216
      9 C9         35.4260    3.7603   22.3218 C.3     1  <0>        -0.0211
     10 C10        37.3631    7.4444   26.5067 C.3     1  <0>        -0.0110
     11 C11        39.2468    6.4573   26.5689 C.3     1  <0>        -0.0110
     12 C12        37.3108    4.9893   27.3391 C.2     1  <0>         0.0310
     13 C13        39.8052    7.0569   18.7274 C.ar    1  <0>         0.0355
     14 C14        40.5505    8.0633   19.3421 C.ar    1  <0>         0.1325
     15 C15        37.4196    5.6597   21.2682 C.ar    1  <0>         0.0030
     16 C16        38.6453    6.4299   19.3783 C.ar    1  <0>         0.0743
     17 C17        36.4398    5.1578   20.4104 C.ar    1  <0>        -0.0200
     18 C18        36.3112    4.6068   23.1880 C.2     1  <0>        -0.0115
     19 C19        36.4095    4.6821   24.6508 C.2     1  <0>         0.0644
     20 C20        37.2235    5.4669   22.7265 C.2     1  <0>         0.0428
     21 C21        37.3896    5.5845   24.8673 C.2     1  <0>         0.0428
     22 C22        35.7245    3.9632   25.7365 C.2     1  <0>         0.2789
     23 C23        37.8097    5.9837   26.2621 C.3     1  <0>         0.1236
     24 N1         37.8427    6.0257   23.7161 N.pl3   1  <0>        -0.3155
     25 N2         37.6933    5.9424   18.5617 N.ar    1  <0>        -0.2546
     26 N3         36.1837    4.1256   26.9914 N.2     1  <0>        -0.2200
     27 N4         38.7069    7.7702   27.0373 N.4     1  <0>         0.2352
     28 O1         34.8023    3.1876   25.5193 O.2     1  <0>        -0.2652
     29 F1         40.2363    8.5377   20.5523 F       1  <0>        -0.2048
     30 H1         39.7964    8.2980   28.7896 H       1  <0>         0.0778
     31 H2         38.1192    8.9370   28.7187 H       1  <0>         0.0778
     32 H3         38.4039    7.1976   29.0657 H       1  <0>         0.0778
     33 H4         41.5404    6.7529   15.8477 H       1  <0>         0.0618
     34 H5         42.8378    8.5721   16.9114 H       1  <0>         0.0618
     35 H6         39.5634    5.8080   17.0023 H       1  <0>         0.0625
     36 H7         42.2372    9.3793   19.1605 H       1  <0>         0.0646
     37 H8         39.3334    6.6458   21.4198 H       1  <0>         0.0645
     38 H9         35.8623    4.9444   18.3524 H       1  <0>         0.0833
     39 H10        34.8714    3.6957   20.2291 H       1  <0>         0.0317
     40 H11        34.3987    5.2152   21.0893 H       1  <0>         0.0317
     41 H12        34.4604    3.6109   22.8270 H       1  <0>         0.0317
     42 H13        35.9098    2.7872   22.1510 H       1  <0>         0.0317
     43 H14        37.0332    8.0113   25.6237 H       1  <0>         0.0829
     44 H15        36.5157    7.5904   27.1926 H       1  <0>         0.0829
     45 H16        39.8149    5.8670   27.3028 H       1  <0>         0.0829
     46 H17        39.9485    6.4858   25.7223 H       1  <0>         0.0829
     47 H18        37.7782    4.9357   28.3112 H       1  <0>         0.0797
     48 H19        38.5705    6.7043   23.6173 H       1  <0>         0.1519
     49 H20        39.1809    8.6032   26.7519 H       1  <0>         0.2031
@<TRIPOS>BOND
     1     1    27    1
     2     2     3   ar
     3     2     4   ar
     4     3     5   ar
     5     4    13   ar
     6     5    14   ar
     7     6    15   ar
     8     6    16   ar
     9     7    17   ar
    10     7    25   ar
    11     8     9    1
    12     8    17    1
    13     9    18    1
    14    10    23    1
    15    10    27    1
    16    11    23    1
    17    11    27    1
    18    12    23    1
    19    12    26    2
    20    13    14   ar
    21    13    16    1
    22    14    29    1
    23    15    17   ar
    24    15    20    1
    25    16    25   ar
    26    18    19    1
    27    18    20    2
    28    19    21    2
    29    19    22    1
    30    20    24    1
    31    21    23    1
    32    21    24    1
    33    22    26    1
    34    22    28    2
    35     1    30    1
    36     1    31    1
    37     1    32    1
    38     2    33    1
    39     3    34    1
    40     4    35    1
    41     5    36    1
    42     6    37    1
    43     7    38    1
    44     8    39    1
    45     8    40    1
    46     9    41    1
    47     9    42    1
    48    10    43    1
    49    10    44    1
    50    11    45    1
    51    11    46    1
    52    12    47    1
    53    24    48    1
    54    27    49    1
@<TRIPOS>SUBSTRUCTURE
     1 <0>         1 TEMP              0 ****  ****    0 ROOT

