
##########                                Name:          L8I_1_3M2W
##########                    Molecular_Weight:             387.436
##########                DOCK_Rotatable_Bonds:                   1
##########                       Formal_Charge:              0.9998
##########                     HBond_Acceptors:                   6
##########                        HBond_Donors:                   2
##########                         Heavy_Atoms:                  29
##########                            HA_RMSDs:               1.837
##########                            HA_RMSDh:               1.837
##########                            HA_RMSDm:               1.447
##########                          Grid_Score:         -110.037033
##########                     Grid_vdw_energy:          -49.378796
##########                      Grid_es_energy:          -60.658241
##########           Internal_energy_repulsive:            8.304356

@<TRIPOS>MOLECULE
L8I_1_3M2W
 49 54 1 0 0
SMALL
USER_CHARGES


@<TRIPOS>ATOM
      1 C1         38.1521    5.1901   23.5541 C.3     1  <0>        -0.0430
      2 C2         33.1086    2.6906   12.9799 C.ar    1  <0>        -0.0610
      3 C3         32.5644    1.9180   14.0106 C.ar    1  <0>        -0.0590
      4 C4         34.3061    3.3687   13.1794 C.ar    1  <0>        -0.0498
      5 C5         33.1937    1.8436   15.2418 C.ar    1  <0>        -0.0258
      6 C6         36.5720    4.5934   15.7958 C.ar    1  <0>        -0.0264
      7 C7         38.0446    4.9518   13.4708 C.ar    1  <0>         0.0321
      8 C8         39.8178    6.3093   14.6839 C.3     1  <0>        -0.0216
      9 C9         39.8551    7.3871   15.8001 C.3     1  <0>        -0.0211
     10 C10        39.0475    5.1611   21.2067 C.3     1  <0>        -0.0110
     11 C11        37.1835    6.1695   21.3938 C.3     1  <0>        -0.0110
     12 C12        39.1770    7.7505   21.2448 C.2     1  <0>         0.0310
     13 C13        34.9364    3.2839   14.4092 C.ar    1  <0>         0.0355
     14 C14        34.3876    2.5258   15.4439 C.ar    1  <0>         0.1325
     15 C15        37.7614    5.3115   15.8258 C.ar    1  <0>         0.0030
     16 C16        36.1833    4.0463   14.5704 C.ar    1  <0>         0.0743
     17 C17        38.5056    5.5113   14.6623 C.ar    1  <0>        -0.0200
     18 C18        39.2197    6.8584   17.0520 C.2     1  <0>        -0.0115
     19 C19        39.4495    7.2231   18.4553 C.2     1  <0>         0.0644
     20 C20        38.2657    5.9234   17.0803 C.2     1  <0>         0.0428
     21 C21        38.5807    6.4507   19.1411 C.2     1  <0>         0.0428
     22 C22        40.3255    8.2144   19.0993 C.2     1  <0>         0.2789
     23 C23        38.4959    6.4941   20.6485 C.3     1  <0>         0.1236
     24 N1         37.9043    5.6993   18.3026 N.pl3   1  <0>        -0.3155
     25 N2         36.9101    4.2453   13.4556 N.ar    1  <0>        -0.2546
     26 N3         40.1617    8.4434   20.4156 N.2     1  <0>        -0.2200
     27 N4         37.8689    5.0415   22.0956 N.4     1  <0>         0.2352
     28 O1         41.1432    8.8670   18.4631 O.2     1  <0>        -0.2652
     29 F1         34.9800    2.4256   16.6386 F       1  <0>        -0.2048
     30 H1         37.2161    5.0852   24.1225 H       1  <0>         0.0778
     31 H2         38.8622    4.4119   23.8707 H       1  <0>         0.0778
     32 H3         38.5868    6.1825   23.7439 H       1  <0>         0.0778
     33 H4         32.5994    2.7605   12.0300 H       1  <0>         0.0618
     34 H5         31.6458    1.3749   13.8450 H       1  <0>         0.0618
     35 H6         34.7400    3.9554   12.3833 H       1  <0>         0.0625
     36 H7         32.7597    1.2593   16.0397 H       1  <0>         0.0646
     37 H8         35.9720    4.4635   16.6844 H       1  <0>         0.0645
     38 H9         38.6056    5.0897   12.5583 H       1  <0>         0.0833
     39 H10        39.9314    6.8136   13.7129 H       1  <0>         0.0317
     40 H11        40.6467    5.6065   14.8546 H       1  <0>         0.0317
     41 H12        40.9010    7.6553   16.0101 H       1  <0>         0.0317
     42 H13        39.3044    8.2775   15.4625 H       1  <0>         0.0317
     43 H14        39.1985    4.3495   20.4798 H       1  <0>         0.0829
     44 H15        40.0307    5.2039   21.6980 H       1  <0>         0.0829
     45 H16        36.7663    6.9651   22.0285 H       1  <0>         0.0829
     46 H17        36.3142    5.9087   20.7722 H       1  <0>         0.0829
     47 H18        38.9335    8.1020   22.2365 H       1  <0>         0.0797
     48 H19        37.2023    5.0406   18.5732 H       1  <0>         0.1519
     49 H20        37.3797    4.1736   22.1817 H       1  <0>         0.2031
@<TRIPOS>BOND
     1     1    27    1
     2     2     3   ar
     3     2     4   ar
     4     3     5   ar
     5     4    13   ar
     6     5    14   ar
     7     6    15   ar
     8     6    16   ar
     9     7    17   ar
    10     7    25   ar
    11     8     9    1
    12     8    17    1
    13     9    18    1
    14    10    23    1
    15    10    27    1
    16    11    23    1
    17    11    27    1
    18    12    23    1
    19    12    26    2
    20    13    14   ar
    21    13    16    1
    22    14    29    1
    23    15    17   ar
    24    15    20    1
    25    16    25   ar
    26    18    19    1
    27    18    20    2
    28    19    21    2
    29    19    22    1
    30    20    24    1
    31    21    23    1
    32    21    24    1
    33    22    26    1
    34    22    28    2
    35     1    30    1
    36     1    31    1
    37     1    32    1
    38     2    33    1
    39     3    34    1
    40     4    35    1
    41     5    36    1
    42     6    37    1
    43     7    38    1
    44     8    39    1
    45     8    40    1
    46     9    41    1
    47     9    42    1
    48    10    43    1
    49    10    44    1
    50    11    45    1
    51    11    46    1
    52    12    47    1
    53    24    48    1
    54    27    49    1
@<TRIPOS>SUBSTRUCTURE
     1 <0>         1 TEMP              0 ****  ****    0 ROOT

