
##########                                Name:          L8I_1_3M2W
##########                    Molecular_Weight:             387.436
##########                DOCK_Rotatable_Bonds:                   1
##########                       Formal_Charge:              0.9998
##########                     HBond_Acceptors:                   6
##########                        HBond_Donors:                   2
##########                         Heavy_Atoms:                  29
##########                            HA_RMSDs:               0.757
##########                            HA_RMSDh:               0.757
##########                            HA_RMSDm:               0.697
##########                          Grid_Score:         -116.309189
##########                     Grid_vdw_energy:          -57.539825
##########                      Grid_es_energy:          -58.769367
##########           Internal_energy_repulsive:           14.033034

@<TRIPOS>MOLECULE
L8I_1_3M2W
 49 54 1 0 0
SMALL
USER_CHARGES


@<TRIPOS>ATOM
      1 C1         37.5675    4.6409   23.2916 C.3     1  <0>        -0.0430
      2 C2         34.5934    3.5835   11.6880 C.ar    1  <0>        -0.0610
      3 C3         33.7782    2.8321   12.5402 C.ar    1  <0>        -0.0590
      4 C4         35.7042    4.2469   12.1973 C.ar    1  <0>        -0.0498
      5 C5         34.0508    2.7645   13.8962 C.ar    1  <0>        -0.0258
      6 C6         37.3073    5.2660   15.3806 C.ar    1  <0>        -0.0264
      7 C7         39.1246    6.0143   13.4209 C.ar    1  <0>         0.0321
      8 C8         40.6159    7.1885   15.1108 C.3     1  <0>        -0.0216
      9 C9         40.4240    8.0747   16.3706 C.3     1  <0>        -0.0211
     10 C10        38.8360    5.0014   21.1529 C.3     1  <0>        -0.0110
     11 C11        36.9255    5.9373   21.1770 C.3     1  <0>        -0.0110
     12 C12        38.8478    7.5532   21.6127 C.2     1  <0>         0.0310
     13 C13        35.9780    4.1690   13.5523 C.ar    1  <0>         0.0355
     14 C14        35.1576    3.4322   14.4070 C.ar    1  <0>         0.1325
     15 C15        38.4442    5.9888   15.7214 C.ar    1  <0>         0.0030
     16 C16        37.1483    4.9155   14.0375 C.ar    1  <0>         0.0743
     17 C17        39.3599    6.3836   14.7451 C.ar    1  <0>        -0.0200
     18 C18        39.6149    7.3429   17.4003 C.2     1  <0>        -0.0115
     19 C19        39.5959    7.4824   18.8616 C.2     1  <0>         0.0644
     20 C20        38.7096    6.4004   17.1222 C.2     1  <0>         0.0428
     21 C21        38.6600    6.5968   19.2632 C.2     1  <0>         0.0428
     22 C22        40.3118    8.3718   19.7896 C.2     1  <0>         0.2789
     23 C23        38.3275    6.3975   20.7230 C.3     1  <0>         0.1236
     24 N1         38.1626    5.9783   18.2166 N.pl3   1  <0>        -0.3155
     25 N2         38.0389    5.3015   13.1055 N.ar    1  <0>        -0.2546
     26 N3         39.9248    8.3851   21.0788 N.2     1  <0>        -0.2200
     27 N4         37.5338    4.7227   21.8011 N.4     1  <0>         0.2352
     28 O1         41.1943    9.1306   19.4092 O.2     1  <0>        -0.2652
     29 F1         35.4041    3.3390   15.7181 F       1  <0>        -0.2048
     30 H1         36.5563    4.4319   23.6709 H       1  <0>         0.0778
     31 H2         38.2484    3.8335   23.5990 H       1  <0>         0.0778
     32 H3         37.9228    5.5970   23.7033 H       1  <0>         0.0778
     33 H4         34.3605    3.6485   10.6353 H       1  <0>         0.0618
     34 H5         32.9290    2.3001   12.1376 H       1  <0>         0.0618
     35 H6         36.3468    4.8171   11.5428 H       1  <0>         0.0625
     36 H7         33.4077    2.1968   14.5523 H       1  <0>         0.0646
     37 H8         36.5758    4.9863   16.1243 H       1  <0>         0.0645
     38 H9         39.8212    6.3050   12.6485 H       1  <0>         0.0833
     39 H10        40.8657    7.8432   14.2629 H       1  <0>         0.0317
     40 H11        41.4346    6.4807   15.3080 H       1  <0>         0.0317
     41 H12        41.4090    8.3224   16.7928 H       1  <0>         0.0317
     42 H13        39.8989    8.9988   16.0869 H       1  <0>         0.0317
     43 H14        39.1384    4.3188   20.3452 H       1  <0>         0.0829
     44 H15        39.7227    4.9807   21.8036 H       1  <0>         0.0829
     45 H16        36.3767    6.6146   21.8477 H       1  <0>         0.0829
     46 H17        36.1817    5.7654   20.3850 H       1  <0>         0.0829
     47 H18        38.4304    7.7378   22.5915 H       1  <0>         0.0797
     48 H19        37.4543    5.2738   18.2597 H       1  <0>         0.1519
     49 H20        37.0742    3.8446   21.6681 H       1  <0>         0.2031
@<TRIPOS>BOND
     1     1    27    1
     2     2     3   ar
     3     2     4   ar
     4     3     5   ar
     5     4    13   ar
     6     5    14   ar
     7     6    15   ar
     8     6    16   ar
     9     7    17   ar
    10     7    25   ar
    11     8     9    1
    12     8    17    1
    13     9    18    1
    14    10    23    1
    15    10    27    1
    16    11    23    1
    17    11    27    1
    18    12    23    1
    19    12    26    2
    20    13    14   ar
    21    13    16    1
    22    14    29    1
    23    15    17   ar
    24    15    20    1
    25    16    25   ar
    26    18    19    1
    27    18    20    2
    28    19    21    2
    29    19    22    1
    30    20    24    1
    31    21    23    1
    32    21    24    1
    33    22    26    1
    34    22    28    2
    35     1    30    1
    36     1    31    1
    37     1    32    1
    38     2    33    1
    39     3    34    1
    40     4    35    1
    41     5    36    1
    42     6    37    1
    43     7    38    1
    44     8    39    1
    45     8    40    1
    46     9    41    1
    47     9    42    1
    48    10    43    1
    49    10    44    1
    50    11    45    1
    51    11    46    1
    52    12    47    1
    53    24    48    1
    54    27    49    1
@<TRIPOS>SUBSTRUCTURE
     1 <0>         1 TEMP              0 ****  ****    0 ROOT

