
##########                                Name:          L8I_1_3M2W
##########                    Molecular_Weight:             387.436
##########                DOCK_Rotatable_Bonds:                   1
##########                       Formal_Charge:              0.9998
##########                     HBond_Acceptors:                   6
##########                        HBond_Donors:                   2
##########                         Heavy_Atoms:                  29
##########                            HA_RMSDs:               1.033
##########                            HA_RMSDh:               1.033
##########                            HA_RMSDm:               0.897
##########                          Grid_Score:         -111.462082
##########                     Grid_vdw_energy:          -54.527328
##########                      Grid_es_energy:          -56.934757
##########           Internal_energy_repulsive:            5.561165

@<TRIPOS>MOLECULE
L8I_1_3M2W
 49 54 1 0 0
SMALL
USER_CHARGES


@<TRIPOS>ATOM
      1 C1         36.9682    4.1617   23.3631 C.3     1  <0>        -0.0430
      2 C2         34.0168    3.3633   11.8610 C.ar    1  <0>        -0.0610
      3 C3         33.5447    2.2314   12.5329 C.ar    1  <0>        -0.0590
      4 C4         35.0809    4.0881   12.3862 C.ar    1  <0>        -0.0498
      5 C5         34.1099    1.8397   13.7348 C.ar    1  <0>        -0.0258
      6 C6         36.8521    4.8558   15.4543 C.ar    1  <0>        -0.0264
      7 C7         38.6571    5.7542   13.5471 C.ar    1  <0>         0.0321
      8 C8         40.0197    7.0129   15.2843 C.3     1  <0>        -0.0216
      9 C9         39.7348    7.8689   16.5473 C.3     1  <0>        -0.0211
     10 C10        38.2581    4.6361   21.2597 C.3     1  <0>        -0.0110
     11 C11        36.2854    5.4326   21.2458 C.3     1  <0>        -0.0110
     12 C12        38.0758    7.1768   21.7439 C.2     1  <0>         0.0310
     13 C13        35.6488    3.6873   13.5836 C.ar    1  <0>         0.0355
     14 C14        35.1698    2.5671   14.2633 C.ar    1  <0>         0.1325
     15 C15        37.9258    5.6542   15.8299 C.ar    1  <0>         0.0030
     16 C16        36.7506    4.5101   14.1044 C.ar    1  <0>         0.0743
     17 C17        38.8338    6.1244   14.8802 C.ar    1  <0>        -0.0200
     18 C18        38.9561    7.0695   17.5498 C.2     1  <0>        -0.0115
     19 C19        38.8924    7.1908   19.0115 C.2     1  <0>         0.0644
     20 C20        38.1276    6.0679   17.2407 C.2     1  <0>         0.0428
     21 C21        38.0131    6.2360   19.3815 C.2     1  <0>         0.0428
     22 C22        39.5203    8.1186   19.9652 C.2     1  <0>         0.2789
     23 C23        37.6611    5.9970   20.8308 C.3     1  <0>         0.1236
     24 N1         37.5864    5.5954   18.3171 N.pl3   1  <0>        -0.3155
     25 N2         37.6332    4.9692   13.1984 N.ar    1  <0>        -0.2546
     26 N3         39.1028    8.0896   21.2446 N.2     1  <0>        -0.2200
     27 N4         36.9642    4.2577   21.8730 N.4     1  <0>         0.2352
     28 O1         40.3549    8.9427   19.6138 O.2     1  <0>        -0.2652
     29 F1         35.7046    2.1585   15.4189 F       1  <0>        -0.2048
     30 H1         35.9659    3.8766   23.7154 H       1  <0>         0.0778
     31 H2         37.6978    3.4016   23.6794 H       1  <0>         0.0778
     32 H3         37.2441    5.1361   23.7925 H       1  <0>         0.0778
     33 H4         33.5555    3.6741   10.9352 H       1  <0>         0.0618
     34 H5         32.7327    1.6580   12.1109 H       1  <0>         0.0618
     35 H6         35.4605    4.9548   11.8655 H       1  <0>         0.0625
     36 H7         33.7298    0.9747   14.2580 H       1  <0>         0.0646
     37 H8         36.1251    4.5162   16.1772 H       1  <0>         0.0645
     38 H9         39.3493    6.1027   12.7949 H       1  <0>         0.0833
     39 H10        40.2420    7.6933   14.4490 H       1  <0>         0.0317
     40 H11        40.8821    6.3633   15.4946 H       1  <0>         0.0317
     41 H12        40.6892    8.1816   16.9959 H       1  <0>         0.0317
     42 H13        39.1517    8.7562   16.2597 H       1  <0>         0.0317
     43 H14        38.6278    3.9860   20.4531 H       1  <0>         0.0829
     44 H15        39.1282    4.6715   21.9317 H       1  <0>         0.0829
     45 H16        35.6736    6.0614   21.9093 H       1  <0>         0.0829
     46 H17        35.5749    5.2170   20.4342 H       1  <0>         0.0829
     47 H18        37.6231    7.3201   22.7140 H       1  <0>         0.0797
     48 H19        36.9296    4.8416   18.3362 H       1  <0>         0.1519
     49 H20        36.5721    3.3505   21.7204 H       1  <0>         0.2031
@<TRIPOS>BOND
     1     1    27    1
     2     2     3   ar
     3     2     4   ar
     4     3     5   ar
     5     4    13   ar
     6     5    14   ar
     7     6    15   ar
     8     6    16   ar
     9     7    17   ar
    10     7    25   ar
    11     8     9    1
    12     8    17    1
    13     9    18    1
    14    10    23    1
    15    10    27    1
    16    11    23    1
    17    11    27    1
    18    12    23    1
    19    12    26    2
    20    13    14   ar
    21    13    16    1
    22    14    29    1
    23    15    17   ar
    24    15    20    1
    25    16    25   ar
    26    18    19    1
    27    18    20    2
    28    19    21    2
    29    19    22    1
    30    20    24    1
    31    21    23    1
    32    21    24    1
    33    22    26    1
    34    22    28    2
    35     1    30    1
    36     1    31    1
    37     1    32    1
    38     2    33    1
    39     3    34    1
    40     4    35    1
    41     5    36    1
    42     6    37    1
    43     7    38    1
    44     8    39    1
    45     8    40    1
    46     9    41    1
    47     9    42    1
    48    10    43    1
    49    10    44    1
    50    11    45    1
    51    11    46    1
    52    12    47    1
    53    24    48    1
    54    27    49    1
@<TRIPOS>SUBSTRUCTURE
     1 <0>         1 TEMP              0 ****  ****    0 ROOT

