
##########                                Name:          L8I_1_3M2W
##########                    Molecular_Weight:             387.436
##########                DOCK_Rotatable_Bonds:                   1
##########                       Formal_Charge:              0.9998
##########                     HBond_Acceptors:                   6
##########                        HBond_Donors:                   2
##########                         Heavy_Atoms:                  29
##########                            HA_RMSDs:               1.326
##########                            HA_RMSDh:               1.326
##########                            HA_RMSDm:               1.143
##########                          Grid_Score:         -101.608902
##########                     Grid_vdw_energy:          -43.869778
##########                      Grid_es_energy:          -57.739124
##########           Internal_energy_repulsive:           13.821072

@<TRIPOS>MOLECULE
L8I_1_3M2W
 49 54 1 0 0
SMALL
USER_CHARGES


@<TRIPOS>ATOM
      1 C1         37.0641    4.2541   23.7636 C.3     1  <0>        -0.0430
      2 C2         34.4348    2.7688   12.1245 C.ar    1  <0>        -0.0610
      3 C3         33.7773    1.8616   12.9613 C.ar    1  <0>        -0.0590
      4 C4         35.3938    3.6276   12.6500 C.ar    1  <0>        -0.0498
      5 C5         34.0523    1.8290   14.3180 C.ar    1  <0>        -0.0258
      6 C6         36.7515    4.8980   15.8560 C.ar    1  <0>        -0.0264
      7 C7         38.4069    6.0009   13.9205 C.ar    1  <0>         0.0321
      8 C8         39.6317    7.4222   15.6347 C.3     1  <0>        -0.0216
      9 C9         39.2633    8.2423   16.9000 C.3     1  <0>        -0.0211
     10 C10        38.2568    4.8730   21.6405 C.3     1  <0>        -0.0110
     11 C11        36.2021    5.4247   21.6539 C.3     1  <0>        -0.0110
     12 C12        37.7750    7.3749   22.1219 C.2     1  <0>         0.0310
     13 C13        35.6720    3.5850   14.0057 C.ar    1  <0>         0.0355
     14 C14        35.0066    2.6912   14.8450 C.ar    1  <0>         0.1325
     15 C15        37.7258    5.8220   16.2140 C.ar    1  <0>         0.0030
     16 C16        36.6734    4.5372   14.5085 C.ar    1  <0>         0.0743
     17 C17        38.5565    6.3951   15.2500 C.ar    1  <0>        -0.0200
     18 C18        38.6015    7.3585   17.9155 C.2     1  <0>        -0.0115
     19 C19        38.5446    7.4769   19.3777 C.2     1  <0>         0.0644
     20 C20        37.8962    6.2626   17.6207 C.2     1  <0>         0.0428
     21 C21        37.7929    6.4241   19.7626 C.2     1  <0>         0.0428
     22 C22        39.0691    8.4777   20.3200 C.2     1  <0>         0.2789
     23 C23        37.4932    6.1500   21.2174 C.3     1  <0>         0.1236
     24 N1         37.4317    5.7323   18.7061 N.pl3   1  <0>        -0.3155
     25 N2         37.4807    5.0963   13.5885 N.ar    1  <0>        -0.2546
     26 N3         38.6765    8.4033   21.6055 N.2     1  <0>        -0.2200
     27 N4         37.0272    4.3431   22.2735 N.4     1  <0>         0.2352
     28 O1         39.7925    9.3954   19.9547 O.2     1  <0>        -0.2652
     29 F1         35.2611    2.6288   16.1565 F       1  <0>        -0.2048
     30 H1         36.1089    3.8511   24.1312 H       1  <0>         0.0778
     31 H2         37.8849    3.5893   24.0708 H       1  <0>         0.0778
     32 H3         37.2261    5.2565   24.1868 H       1  <0>         0.0778
     33 H4         34.1980    2.8023   11.0713 H       1  <0>         0.0618
     34 H5         33.0490    1.1809   12.5460 H       1  <0>         0.0618
     35 H6         35.9163    4.3207   12.0074 H       1  <0>         0.0625
     36 H7         33.5288    1.1381   14.9623 H       1  <0>         0.0646
     37 H8         36.0814    4.4757   16.5901 H       1  <0>         0.0645
     38 H9         39.0409    6.4277   13.1574 H       1  <0>         0.0833
     39 H10        39.7578    8.1212   14.7948 H       1  <0>         0.0317
     40 H11        40.5694    6.8827   15.8338 H       1  <0>         0.0317
     41 H12        40.1791    8.6701   17.3338 H       1  <0>         0.0317
     42 H13        38.5729    9.0513   16.6190 H       1  <0>         0.0317
     43 H14        38.6910    4.2693   20.8300 H       1  <0>         0.0829
     44 H15        39.1258    5.0162   22.2996 H       1  <0>         0.0829
     45 H16        35.5281    5.9773   22.3249 H       1  <0>         0.0829
     46 H17        35.5114    5.1214   20.8533 H       1  <0>         0.0829
     47 H18        37.3221    7.4660   23.0981 H       1  <0>         0.0797
     48 H19        36.8715    4.9046   18.7364 H       1  <0>         0.1519
     49 H20        36.7458    3.3945   22.1287 H       1  <0>         0.2031
@<TRIPOS>BOND
     1     1    27    1
     2     2     3   ar
     3     2     4   ar
     4     3     5   ar
     5     4    13   ar
     6     5    14   ar
     7     6    15   ar
     8     6    16   ar
     9     7    17   ar
    10     7    25   ar
    11     8     9    1
    12     8    17    1
    13     9    18    1
    14    10    23    1
    15    10    27    1
    16    11    23    1
    17    11    27    1
    18    12    23    1
    19    12    26    2
    20    13    14   ar
    21    13    16    1
    22    14    29    1
    23    15    17   ar
    24    15    20    1
    25    16    25   ar
    26    18    19    1
    27    18    20    2
    28    19    21    2
    29    19    22    1
    30    20    24    1
    31    21    23    1
    32    21    24    1
    33    22    26    1
    34    22    28    2
    35     1    30    1
    36     1    31    1
    37     1    32    1
    38     2    33    1
    39     3    34    1
    40     4    35    1
    41     5    36    1
    42     6    37    1
    43     7    38    1
    44     8    39    1
    45     8    40    1
    46     9    41    1
    47     9    42    1
    48    10    43    1
    49    10    44    1
    50    11    45    1
    51    11    46    1
    52    12    47    1
    53    24    48    1
    54    27    49    1
@<TRIPOS>SUBSTRUCTURE
     1 <0>         1 TEMP              0 ****  ****    0 ROOT

