
##########                                Name:          L8I_1_3M2W
##########                    Molecular_Weight:             387.436
##########                DOCK_Rotatable_Bonds:                   1
##########                       Formal_Charge:              0.9998
##########                     HBond_Acceptors:                   6
##########                        HBond_Donors:                   2
##########                         Heavy_Atoms:                  29
##########                            HA_RMSDs:               1.078
##########                            HA_RMSDh:               1.078
##########                            HA_RMSDm:               0.909
##########                          Grid_Score:         -112.277283
##########                     Grid_vdw_energy:          -54.636959
##########                      Grid_es_energy:          -57.640324
##########           Internal_energy_repulsive:            8.126031

@<TRIPOS>MOLECULE
L8I_1_3M2W
 49 54 1 0 0
SMALL
USER_CHARGES


@<TRIPOS>ATOM
      1 C1         37.2770    4.6385   23.4429 C.3     1  <0>        -0.0430
      2 C2         33.9528    3.2711   12.0189 C.ar    1  <0>        -0.0610
      3 C3         33.2693    2.3924   12.8651 C.ar    1  <0>        -0.0590
      4 C4         35.0983    3.9179   12.4695 C.ar    1  <0>        -0.0498
      5 C5         33.7073    2.1804   14.1616 C.ar    1  <0>        -0.0258
      6 C6         36.9251    4.8470   15.5135 C.ar    1  <0>        -0.0264
      7 C7         38.7368    5.4323   13.4940 C.ar    1  <0>         0.0321
      8 C8         40.2868    6.6482   15.0996 C.3     1  <0>        -0.0216
      9 C9         40.1396    7.6061   16.3120 C.3     1  <0>        -0.0211
     10 C10        38.5258    4.8442   21.2724 C.3     1  <0>        -0.0110
     11 C11        36.6453    5.8392   21.2695 C.3     1  <0>        -0.0110
     12 C12        38.6218    7.4154   21.5936 C.2     1  <0>         0.0310
     13 C13        35.5375    3.6957   13.7636 C.ar    1  <0>         0.0355
     14 C14        34.8489    2.8310   14.6146 C.ar    1  <0>         0.1325
     15 C15        38.0882    5.5512   15.8008 C.ar    1  <0>         0.0030
     16 C16        36.7367    4.4303   14.1933 C.ar    1  <0>         0.0743
     17 C17        39.0018    5.8644   14.7934 C.ar    1  <0>        -0.0200
     18 C18        39.3231    6.9561   17.3896 C.2     1  <0>        -0.0115
     19 C19        39.3289    7.1742   18.8413 C.2     1  <0>         0.0644
     20 C20        38.3857    6.0287   17.1740 C.2     1  <0>         0.0428
     21 C21        38.3721    6.3409   19.3016 C.2     1  <0>         0.0428
     22 C22        40.0845    8.0892   19.7111 C.2     1  <0>         0.2789
     23 C23        38.0541    6.2306   20.7741 C.3     1  <0>         0.1236
     24 N1         37.8415    5.6831   18.2961 N.pl3   1  <0>        -0.3155
     25 N2         37.6256    4.7378   13.2309 N.ar    1  <0>        -0.2546
     26 N3         39.7162    8.1835   21.0024 N.2     1  <0>        -0.2200
     27 N4         37.2249    4.6415   21.9506 N.4     1  <0>         0.2352
     28 O1         40.9843    8.7986   19.2794 O.2     1  <0>        -0.2652
     29 F1         35.2561    2.5975   15.8668 F       1  <0>        -0.2048
     30 H1         36.2653    4.4817   23.8453 H       1  <0>         0.0778
     31 H2         37.9372    3.8279   23.7850 H       1  <0>         0.0778
     32 H3         37.6670    5.6038   23.7980 H       1  <0>         0.0778
     33 H4         33.5914    3.4473   11.0165 H       1  <0>         0.0618
     34 H5         32.3927    1.8748   12.5046 H       1  <0>         0.0618
     35 H6         35.6398    4.5866   11.8168 H       1  <0>         0.0625
     36 H7         33.1654    1.5139   14.8162 H       1  <0>         0.0646
     37 H8         36.1960    4.6305   16.2802 H       1  <0>         0.0645
     38 H9         39.4311    5.6594   12.6985 H       1  <0>         0.0833
     39 H10        40.5444    7.2484   14.2145 H       1  <0>         0.0317
     40 H11        41.0861    5.9268   15.3245 H       1  <0>         0.0317
     41 H12        41.1376    7.8452   16.7080 H       1  <0>         0.0317
     42 H13        39.6391    8.5296   15.9854 H       1  <0>         0.0317
     43 H14        38.7959    4.1103   20.4989 H       1  <0>         0.0829
     44 H15        39.4205    4.8308   21.9122 H       1  <0>         0.0829
     45 H16        36.1268    6.5683   21.9095 H       1  <0>         0.0829
     46 H17        35.8856    5.6485   20.4972 H       1  <0>         0.0829
     47 H18        38.2240    7.6651   22.5662 H       1  <0>         0.0797
     48 H19        37.1127    5.0043   18.3860 H       1  <0>         0.1519
     49 H20        36.7370    3.7722   21.8709 H       1  <0>         0.2031
@<TRIPOS>BOND
     1     1    27    1
     2     2     3   ar
     3     2     4   ar
     4     3     5   ar
     5     4    13   ar
     6     5    14   ar
     7     6    15   ar
     8     6    16   ar
     9     7    17   ar
    10     7    25   ar
    11     8     9    1
    12     8    17    1
    13     9    18    1
    14    10    23    1
    15    10    27    1
    16    11    23    1
    17    11    27    1
    18    12    23    1
    19    12    26    2
    20    13    14   ar
    21    13    16    1
    22    14    29    1
    23    15    17   ar
    24    15    20    1
    25    16    25   ar
    26    18    19    1
    27    18    20    2
    28    19    21    2
    29    19    22    1
    30    20    24    1
    31    21    23    1
    32    21    24    1
    33    22    26    1
    34    22    28    2
    35     1    30    1
    36     1    31    1
    37     1    32    1
    38     2    33    1
    39     3    34    1
    40     4    35    1
    41     5    36    1
    42     6    37    1
    43     7    38    1
    44     8    39    1
    45     8    40    1
    46     9    41    1
    47     9    42    1
    48    10    43    1
    49    10    44    1
    50    11    45    1
    51    11    46    1
    52    12    47    1
    53    24    48    1
    54    27    49    1
@<TRIPOS>SUBSTRUCTURE
     1 <0>         1 TEMP              0 ****  ****    0 ROOT

