
##########                                Name:          L8I_1_3M2W
##########                    Molecular_Weight:             387.436
##########                DOCK_Rotatable_Bonds:                   1
##########                       Formal_Charge:              0.9998
##########                     HBond_Acceptors:                   6
##########                        HBond_Donors:                   2
##########                         Heavy_Atoms:                  29
##########                            HA_RMSDs:               1.054
##########                            HA_RMSDh:               1.054
##########                            HA_RMSDm:               0.897
##########                          Grid_Score:         -114.602081
##########                     Grid_vdw_energy:          -55.961067
##########                      Grid_es_energy:          -58.641014
##########           Internal_energy_repulsive:            8.239404

@<TRIPOS>MOLECULE
L8I_1_3M2W
 49 54 1 0 0
SMALL
USER_CHARGES


@<TRIPOS>ATOM
      1 C1         37.4778    4.4891   23.4249 C.3     1  <0>        -0.0430
      2 C2         33.9891    3.3522   12.0227 C.ar    1  <0>        -0.0610
      3 C3         33.3255    2.4504   12.8606 C.ar    1  <0>        -0.0590
      4 C4         35.1340    4.0016   12.4708 C.ar    1  <0>        -0.0498
      5 C5         33.7826    2.2178   14.1468 C.ar    1  <0>        -0.0258
      6 C6         36.9951    4.8840   15.5094 C.ar    1  <0>        -0.0264
      7 C7         38.7670    5.5390   13.4761 C.ar    1  <0>         0.0321
      8 C8         40.3288    6.7342   15.0858 C.3     1  <0>        -0.0216
      9 C9         40.1905    7.6608   16.3232 C.3     1  <0>        -0.0211
     10 C10        38.6889    4.7617   21.2404 C.3     1  <0>        -0.0110
     11 C11        36.7973    5.7342   21.2916 C.3     1  <0>        -0.0110
     12 C12        38.7608    7.3253   21.6222 C.2     1  <0>         0.0310
     13 C13        35.5926    3.7588   13.7545 C.ar    1  <0>         0.0355
     14 C14        34.9237    2.8710   14.5975 C.ar    1  <0>         0.1325
     15 C15        38.1546    5.5948   15.7951 C.ar    1  <0>         0.0030
     16 C16        36.7901    4.4969   14.1827 C.ar    1  <0>         0.0743
     17 C17        39.0481    5.9428   14.7812 C.ar    1  <0>        -0.0200
     18 C18        39.3990    6.9755   17.3976 C.2     1  <0>        -0.0115
     19 C19        39.4258    7.1587   18.8540 C.2     1  <0>         0.0644
     20 C20        38.4688    6.0426   17.1746 C.2     1  <0>         0.0428
     21 C21        38.4862    6.3034   19.3091 C.2     1  <0>         0.0428
     22 C22        40.1849    8.0614   19.7334 C.2     1  <0>         0.2789
     23 C23        38.1934    6.1539   20.7833 C.3     1  <0>         0.1236
     24 N1         37.9469    5.6637   18.2966 N.pl3   1  <0>        -0.3155
     25 N2         37.6596    4.8380   13.2141 N.ar    1  <0>        -0.2546
     26 N3         39.8365    8.1203   21.0324 N.2     1  <0>        -0.2200
     27 N4         37.4015    4.5273   21.9341 N.4     1  <0>         0.2352
     28 O1         41.0694    8.7915   19.3048 O.2     1  <0>        -0.2652
     29 F1         35.3497    2.6174   15.8395 F       1  <0>        -0.2048
     30 H1         36.4746    4.3108   23.8395 H       1  <0>         0.0778
     31 H2         38.1527    3.6783   23.7367 H       1  <0>         0.0778
     32 H3         37.8626    5.4501   23.7970 H       1  <0>         0.0778
     33 H4         33.6127    3.5440   11.0287 H       1  <0>         0.0618
     34 H5         32.4492    1.9312   12.5015 H       1  <0>         0.0618
     35 H6         35.6603    4.6882   11.8243 H       1  <0>         0.0625
     36 H7         33.2560    1.5334   14.7954 H       1  <0>         0.0646
     37 H8         36.2810    4.6406   16.2822 H       1  <0>         0.0645
     38 H9         39.4457    5.7933   12.6754 H       1  <0>         0.0833
     39 H10        40.5653    7.3585   14.2115 H       1  <0>         0.0317
     40 H11        41.1399    6.0170   15.2804 H       1  <0>         0.0317
     41 H12        41.1919    7.9021   16.7090 H       1  <0>         0.0317
     42 H13        39.6742    8.5859   16.0271 H       1  <0>         0.0317
     43 H14        38.9548    4.0498   20.4451 H       1  <0>         0.0829
     44 H15        39.5939    4.7434   21.8653 H       1  <0>         0.0829
     45 H16        36.2810    6.4415   21.9572 H       1  <0>         0.0829
     46 H17        36.0274    5.5532   20.5271 H       1  <0>         0.0829
     47 H18        38.3759    7.5469   22.6067 H       1  <0>         0.0797
     48 H19        37.2274    4.9744   18.3815 H       1  <0>         0.1519
     49 H20        36.9224    3.6545   21.8412 H       1  <0>         0.2031
@<TRIPOS>BOND
     1     1    27    1
     2     2     3   ar
     3     2     4   ar
     4     3     5   ar
     5     4    13   ar
     6     5    14   ar
     7     6    15   ar
     8     6    16   ar
     9     7    17   ar
    10     7    25   ar
    11     8     9    1
    12     8    17    1
    13     9    18    1
    14    10    23    1
    15    10    27    1
    16    11    23    1
    17    11    27    1
    18    12    23    1
    19    12    26    2
    20    13    14   ar
    21    13    16    1
    22    14    29    1
    23    15    17   ar
    24    15    20    1
    25    16    25   ar
    26    18    19    1
    27    18    20    2
    28    19    21    2
    29    19    22    1
    30    20    24    1
    31    21    23    1
    32    21    24    1
    33    22    26    1
    34    22    28    2
    35     1    30    1
    36     1    31    1
    37     1    32    1
    38     2    33    1
    39     3    34    1
    40     4    35    1
    41     5    36    1
    42     6    37    1
    43     7    38    1
    44     8    39    1
    45     8    40    1
    46     9    41    1
    47     9    42    1
    48    10    43    1
    49    10    44    1
    50    11    45    1
    51    11    46    1
    52    12    47    1
    53    24    48    1
    54    27    49    1
@<TRIPOS>SUBSTRUCTURE
     1 <0>         1 TEMP              0 ****  ****    0 ROOT

