
##########                                Name:        RIT_600_3NXU
##########                    Molecular_Weight:             718.941
##########                DOCK_Rotatable_Bonds:                  23
##########                       Formal_Charge:         0.000100225
##########                     HBond_Acceptors:                  13
##########                        HBond_Donors:                   4
##########                         Heavy_Atoms:                  50
##########                            HA_RMSDs:               0.387
##########                            HA_RMSDh:               0.387
##########                            HA_RMSDm:               0.383
##########                          Grid_Score:          -73.649200
##########                     Grid_vdw_energy:          -72.745323
##########                      Grid_es_energy:           -0.903878
##########           Internal_energy_repulsive:           65.477470

@<TRIPOS>MOLECULE
RIT_600_3NXU
 96 99 1 0 0
SMALL
USER_CHARGES


@<TRIPOS>ATOM
      1 C1         35.9610   -7.9591   35.9705 C.3     1  <0>        -0.0567
      2 C2         37.6053   -8.5750   34.2203 C.3     1  <0>        -0.0567
      3 C3         38.1212  -13.2549   32.9973 C.3     1  <0>        -0.0605
      4 C4         39.3535  -14.6897   31.1174 C.3     1  <0>        -0.0605
      5 C5         32.9821  -10.7735   30.9289 C.3     1  <0>         0.0050
      6 C6         42.2992  -20.8749   29.7368 C.ar    1  <0>        -0.0617
      7 C7         31.9587  -15.2508   29.2053 C.ar    1  <0>        -0.0617
      8 C8         41.2155  -20.0835   30.3594 C.ar    1  <0>        -0.0615
      9 C9         43.0699  -20.3280   28.5494 C.ar    1  <0>        -0.0615
     10 C10        32.6509  -14.0704   28.5973 C.ar    1  <0>        -0.0615
     11 C11        32.3635  -16.6459   28.8615 C.ar    1  <0>        -0.0615
     12 C12        40.9073  -18.7401   29.7940 C.ar    1  <0>        -0.0585
     13 C13        42.7687  -19.0013   27.9808 C.ar    1  <0>        -0.0585
     14 C14        33.8093  -14.2533   27.6269 C.ar    1  <0>        -0.0582
     15 C15        33.4905  -16.8422   27.9062 C.ar    1  <0>        -0.0582
     16 C16        35.3760  -21.1699   25.2704 C.2     1  <0>         0.0401
     17 C17        34.8099  -12.7668   35.0095 C.2     1  <0>         0.0002
     18 C18        33.7347  -20.4612   26.6727 C.2     1  <0>         0.0650
     19 C19        41.3078  -16.8874   28.0927 C.3     1  <0>        -0.0064
     20 C20        35.3391  -15.9178   26.4581 C.3     1  <0>         0.0105
     21 C21        33.4205  -12.4352   32.9309 C.3     1  <0>         0.0585
     22 C22        37.3195  -20.9492   26.5717 C.3     1  <0>         0.0912
     23 C23        37.8287  -16.0868   26.7692 C.2     1  <0>        -0.0367
     24 C24        41.7062  -18.2085   28.5814 C.ar    1  <0>        -0.0455
     25 C25        34.2105  -15.6128   27.2990 C.ar    1  <0>        -0.0419
     26 C26        36.1167  -20.9607   26.2182 C.2     1  <0>         0.0354
     27 C27        34.3971  -11.9810   34.0028 C.2     1  <0>         0.0660
     28 C28        35.6725  -10.2491   34.7715 C.2     1  <0>         0.0812
     29 C29        36.1757   -8.7236   34.7014 C.3     1  <0>         0.0021
     30 C30        38.1181  -13.7370   31.4909 C.3     1  <0>        -0.0197
     31 C31        39.8569  -17.0062   27.4731 C.3     1  <0>         0.0587
     32 C32        39.2112  -15.6522   27.3039 C.3     1  <0>         0.0937
     33 C33        36.7233  -13.8082   30.5521 C.3     1  <0>         0.1034
     34 C34        36.7086  -15.7424   27.3862 C.2     1  <0>         0.0134
     35 C35        36.4785  -15.0200   29.8557 C.2     1  <0>         0.2376
     36 C36        34.9461  -12.3612   30.8149 C.2     1  <0>         0.3029
     37 C37        38.6019  -19.0790   26.7436 C.2     1  <0>         0.3529
     38 N1         34.0895  -20.9216   25.4931 N.2     1  <0>        -0.2554
     39 N2         34.8718  -10.7403   33.9407 N.2     1  <0>        -0.2471
     40 N3         39.5252  -18.1010   26.3638 N.am    1  <0>        -0.2854
     41 N4         35.8055  -13.4504   31.4124 N.am    1  <0>        -0.2877
     42 N5         36.9153  -14.8275   28.5526 N.am    1  <0>        -0.2875
     43 N6         33.8162  -11.8504   31.5373 N.am    1  <0>        -0.2829
     44 O1         39.9550  -15.0136   26.0892 O.3     1  <0>        -0.3859
     45 O2         35.7802  -15.9353   30.2151 O.2     1  <0>        -0.2734
     46 O3         35.2491  -11.8776   29.5703 O.2     1  <0>        -0.2526
     47 O4         38.0822  -19.0508   28.0747 O.2     1  <0>        -0.2413
     48 O5         38.0132  -19.8665   25.8703 O.3     1  <0>        -0.2946
     49 S1         35.9102  -11.6116   35.8418 S.3     1  <0>        -0.0800
     50 S2         35.1293  -20.3607   27.4413 S.3     1  <0>        -0.0781
     51 H1         34.9188   -8.0809   36.3007 H       1  <0>         0.0236
     52 H2         36.6389   -8.3416   36.7479 H       1  <0>         0.0236
     53 H3         36.1679   -6.8929   35.7957 H       1  <0>         0.0236
     54 H4         37.7401   -9.1437   33.2885 H       1  <0>         0.0236
     55 H5         37.8213   -7.5123   34.0356 H       1  <0>         0.0236
     56 H6         38.2923   -8.9609   34.9879 H       1  <0>         0.0236
     57 H7         37.2492  -12.6091   33.1780 H       1  <0>         0.0233
     58 H8         38.0733  -14.1299   33.6623 H       1  <0>         0.0233
     59 H9         39.0435  -12.6905   33.1996 H       1  <0>         0.0233
     60 H10        39.2842  -14.9830   30.0594 H       1  <0>         0.0233
     61 H11        40.2969  -14.1500   31.2870 H       1  <0>         0.0233
     62 H12        39.3267  -15.5894   31.7497 H       1  <0>         0.0233
     63 H13        33.4065  -10.4860   29.9556 H       1  <0>         0.0429
     64 H14        31.9552  -11.1415   30.7867 H       1  <0>         0.0429
     65 H15        32.9693   -9.8989   31.5959 H       1  <0>         0.0429
     66 H16        42.5441  -21.8503   30.1307 H       1  <0>         0.0618
     67 H17        31.1522  -15.0899   29.9053 H       1  <0>         0.0618
     68 H18        40.6619  -20.4699   31.2024 H       1  <0>         0.0618
     69 H19        43.8566  -20.9239   28.1109 H       1  <0>         0.0618
     70 H20        32.3230  -13.0733   28.8514 H       1  <0>         0.0618
     71 H21        31.8519  -17.4927   29.2946 H       1  <0>         0.0618
     72 H22        40.1254  -18.1371   30.2314 H       1  <0>         0.0620
     73 H23        43.3255  -18.6253   27.1353 H       1  <0>         0.0620
     74 H24        34.3163  -13.4024   27.1963 H       1  <0>         0.0620
     75 H25        33.8046  -17.8401   27.6378 H       1  <0>         0.0620
     76 H26        35.7400  -21.5307   24.3198 H       1  <0>         0.0838
     77 H27        34.5569  -13.7891   35.2489 H       1  <0>         0.0712
     78 H28        32.7467  -20.2133   27.0315 H       1  <0>         0.0907
     79 H29        41.3020  -16.1669   28.9239 H       1  <0>         0.0332
     80 H30        42.0158  -16.5435   27.3243 H       1  <0>         0.0332
     81 H31        35.2648  -16.9487   26.0814 H       1  <0>         0.0374
     82 H32        35.3708  -15.2299   25.6003 H       1  <0>         0.0374
     83 H33        33.4334  -13.5337   32.8760 H       1  <0>         0.0530
     84 H34        32.4113  -12.0853   33.1935 H       1  <0>         0.0530
     85 H35        37.3836  -20.7864   27.6577 H       1  <0>         0.0622
     86 H36        37.7877  -21.9122   26.3197 H       1  <0>         0.0622
     87 H37        37.7743  -16.6852   25.8717 H       1  <0>         0.0613
     88 H38        35.5273   -8.2706   33.9370 H       1  <0>         0.0364
     89 H39        38.2855  -12.7600   31.0141 H       1  <0>         0.0318
     90 H40        39.3217  -17.5488   28.2663 H       1  <0>         0.0531
     91 H41        39.2033  -14.9867   28.1798 H       1  <0>         0.0657
     92 H42        36.7786  -13.1534   29.6700 H       1  <0>         0.0598
     93 H43        39.9487  -18.0891   25.4580 H       1  <0>         0.1514
     94 H44        35.6902  -13.8388   32.3266 H       1  <0>         0.1510
     95 H45        37.4238  -13.9853   28.3732 H       1  <0>         0.1546
     96 H46        40.7351  -14.5656   26.3949 H       1  <0>         0.2103
@<TRIPOS>BOND
     1     1    29    1
     2     2    29    1
     3     3    30    1
     4     4    30    1
     5     5    43    1
     6     6     8   ar
     7     6     9   ar
     8     7    10   ar
     9     7    11   ar
    10     8    12   ar
    11     9    13   ar
    12    10    14   ar
    13    11    15   ar
    14    12    24   ar
    15    13    24   ar
    16    14    25   ar
    17    15    25   ar
    18    16    26    2
    19    16    38    1
    20    17    27    2
    21    17    49    1
    22    18    38    2
    23    18    50    1
    24    19    24    1
    25    19    31    1
    26    20    25    1
    27    20    34    1
    28    21    27    1
    29    21    43    1
    30    22    26    1
    31    22    48    1
    32    23    32    1
    33    23    34    2
    34    26    50    1
    35    27    39    1
    36    28    29    1
    37    28    39    2
    38    28    49    1
    39    30    33    1
    40    31    32    1
    41    31    40    1
    42    32    44    1
    43    33    35    1
    44    33    41    1
    45    34    42    1
    46    35    42   am
    47    35    45    2
    48    36    41   am
    49    36    43   am
    50    36    46    2
    51    37    40   am
    52    37    47    2
    53    37    48    1
    54     1    51    1
    55     1    52    1
    56     1    53    1
    57     2    54    1
    58     2    55    1
    59     2    56    1
    60     3    57    1
    61     3    58    1
    62     3    59    1
    63     4    60    1
    64     4    61    1
    65     4    62    1
    66     5    63    1
    67     5    64    1
    68     5    65    1
    69     6    66    1
    70     7    67    1
    71     8    68    1
    72     9    69    1
    73    10    70    1
    74    11    71    1
    75    12    72    1
    76    13    73    1
    77    14    74    1
    78    15    75    1
    79    16    76    1
    80    17    77    1
    81    18    78    1
    82    19    79    1
    83    19    80    1
    84    20    81    1
    85    20    82    1
    86    21    83    1
    87    21    84    1
    88    22    85    1
    89    22    86    1
    90    23    87    1
    91    29    88    1
    92    30    89    1
    93    31    90    1
    94    32    91    1
    95    33    92    1
    96    40    93    1
    97    41    94    1
    98    42    95    1
    99    44    96    1
@<TRIPOS>SUBSTRUCTURE
     1 <0>         1 TEMP              0 ****  ****    0 ROOT

