
##########                                Name:        RIT_600_3NXU
##########                    Molecular_Weight:             718.941
##########                DOCK_Rotatable_Bonds:                  23
##########                       Formal_Charge:         0.000100225
##########                     HBond_Acceptors:                  13
##########                        HBond_Donors:                   4
##########                         Heavy_Atoms:                  50
##########                            HA_RMSDs:               0.501
##########                            HA_RMSDh:               0.501
##########                            HA_RMSDm:               0.486
##########                          Grid_Score:          -72.960358
##########                     Grid_vdw_energy:          -71.369637
##########                      Grid_es_energy:           -1.590723
##########           Internal_energy_repulsive:           71.107864

@<TRIPOS>MOLECULE
RIT_600_3NXU
 96 99 1 0 0
SMALL
USER_CHARGES


@<TRIPOS>ATOM
      1 C1         37.4453   -8.1153   35.5817 C.3     1  <0>        -0.0567
      2 C2         38.5326   -9.1625   33.6152 C.3     1  <0>        -0.0567
      3 C3         38.2127  -12.8448   33.1712 C.3     1  <0>        -0.0605
      4 C4         39.2414  -14.6388   31.4877 C.3     1  <0>        -0.0605
      5 C5         32.9721  -10.4935   31.0464 C.3     1  <0>         0.0050
      6 C6         42.0262  -21.0573   29.5300 C.ar    1  <0>        -0.0617
      7 C7         31.9133  -15.0147   29.6677 C.ar    1  <0>        -0.0617
      8 C8         41.0724  -20.2702   30.3419 C.ar    1  <0>        -0.0615
      9 C9         42.6834  -20.4480   28.3053 C.ar    1  <0>        -0.0615
     10 C10        32.3389  -13.8707   28.8004 C.ar    1  <0>        -0.0615
     11 C11        32.5416  -16.3621   29.5334 C.ar    1  <0>        -0.0615
     12 C12        40.7809  -18.8690   29.9284 C.ar    1  <0>        -0.0585
     13 C13        42.3975  -19.0636   27.8864 C.ar    1  <0>        -0.0585
     14 C14        33.4461  -14.0366   27.7691 C.ar    1  <0>        -0.0582
     15 C15        33.6215  -16.5434   28.5224 C.ar    1  <0>        -0.0582
     16 C16        35.7802  -21.3874   24.8142 C.2     1  <0>         0.0401
     17 C17        34.9737  -12.4817   35.1493 C.2     1  <0>         0.0002
     18 C18        33.8523  -21.0587   25.9709 C.2     1  <0>         0.0650
     19 C19        41.0891  -16.8974   28.3456 C.3     1  <0>        -0.0064
     20 C20        35.1742  -15.6120   26.7644 C.3     1  <0>         0.0105
     21 C21        33.4982  -11.9697   33.1690 C.3     1  <0>         0.0585
     22 C22        37.4425  -20.9518   26.4161 C.3     1  <0>         0.0912
     23 C23        37.6548  -15.9124   27.0464 C.2     1  <0>        -0.0367
     24 C24        41.4623  -18.2742   28.6741 C.ar    1  <0>        -0.0455
     25 C25        34.0656  -15.3472   27.6447 C.ar    1  <0>        -0.0419
     26 C26        36.3253  -21.1316   25.8763 C.2     1  <0>         0.0354
     27 C27        34.6594  -11.6936   34.1094 C.2     1  <0>         0.0660
     28 C28        36.3828  -10.2782   34.6030 C.2     1  <0>         0.0812
     29 C29        37.2253   -8.9329   34.3471 C.3     1  <0>         0.0021
     30 C30        38.1359  -13.5032   31.7351 C.3     1  <0>        -0.0197
     31 C31        39.6758  -16.9243   27.6349 C.3     1  <0>         0.0587
     32 C32        39.0664  -15.5454   27.5552 C.3     1  <0>         0.0937
     33 C33        36.7338  -13.5165   30.8045 C.3     1  <0>         0.1034
     34 C34        36.5640  -15.4962   27.6714 C.2     1  <0>         0.0134
     35 C35        36.4196  -14.7264   30.1331 C.2     1  <0>         0.2376
     36 C36        34.9496  -12.0677   31.0024 C.2     1  <0>         0.3029
     37 C37        38.6513  -19.0497   26.7202 C.2     1  <0>         0.3529
     38 N1         34.4515  -21.3675   24.8418 N.2     1  <0>        -0.2554
     39 N2         35.4074  -10.6160   33.8909 N.2     1  <0>        -0.2471
     40 N3         39.3908  -17.9046   26.4115 N.am    1  <0>        -0.2854
     41 N4         35.8418  -13.0929   31.6621 N.am    1  <0>        -0.2877
     42 N5         36.8367  -14.5739   28.8183 N.am    1  <0>        -0.2875
     43 N6         33.8391  -11.5056   31.7167 N.am    1  <0>        -0.2829
     44 O1         39.7897  -14.8676   26.3495 O.3     1  <0>        -0.3859
     45 O2         35.6885  -15.6033   30.5217 O.2     1  <0>        -0.2734
     46 O3         35.2042  -11.6923   29.7106 O.2     1  <0>        -0.2526
     47 O4         38.2645  -19.2703   28.0783 O.2     1  <0>        -0.2413
     48 O5         38.0939  -19.7972   25.7930 O.3     1  <0>        -0.2946
     49 S1         36.3970  -11.5760   35.7752 S.3     1  <0>        -0.0800
     50 S2         35.0796  -20.7909   26.9548 S.3     1  <0>        -0.0781
     51 H1         36.4852   -7.9613   36.0960 H       1  <0>         0.0236
     52 H2         38.1396   -8.6433   36.2521 H       1  <0>         0.0236
     53 H3         37.8731   -7.1405   35.3045 H       1  <0>         0.0236
     54 H4         38.3476   -9.7641   32.7131 H       1  <0>         0.0236
     55 H5         38.9663   -8.1936   33.3269 H       1  <0>         0.0236
     56 H6         39.2328   -9.6964   34.2744 H       1  <0>         0.0236
     57 H7         37.4282  -12.0795   33.2667 H       1  <0>         0.0233
     58 H8         38.0643  -13.6194   33.9380 H       1  <0>         0.0233
     59 H9         39.1991  -12.3776   33.3079 H       1  <0>         0.0233
     60 H10        39.1264  -15.0484   30.4733 H       1  <0>         0.0233
     61 H11        40.2455  -14.2025   31.5952 H       1  <0>         0.0233
     62 H12        39.1106  -15.4444   32.2253 H       1  <0>         0.0233
     63 H13        33.3595  -10.2885   30.0375 H       1  <0>         0.0429
     64 H14        31.9454  -10.8815   30.9729 H       1  <0>         0.0429
     65 H15        32.9718   -9.5641   31.6348 H       1  <0>         0.0429
     66 H16        42.2568  -22.0742   29.8112 H       1  <0>         0.0618
     67 H17        31.1378  -14.8621   30.4037 H       1  <0>         0.0618
     68 H18        40.5994  -20.7005   31.2123 H       1  <0>         0.0618
     69 H19        43.3761  -21.0419   27.7275 H       1  <0>         0.0618
     70 H20        31.8524  -12.9126   28.9082 H       1  <0>         0.0618
     71 H21        32.2213  -17.1859   30.1541 H       1  <0>         0.0618
     72 H22        40.0933  -18.2682   30.5050 H       1  <0>         0.0620
     73 H23        42.8727  -18.6435   27.0123 H       1  <0>         0.0620
     74 H24        33.7614  -13.2093   27.1507 H       1  <0>         0.0620
     75 H25        34.0935  -17.5073   28.4020 H       1  <0>         0.0620
     76 H26        36.3373  -21.6135   23.9171 H       1  <0>         0.0838
     77 H27        34.5101  -13.3900   35.5049 H       1  <0>         0.0712
     78 H28        32.7944  -21.0010   26.1801 H       1  <0>         0.0907
     79 H29        41.0346  -16.2950   29.2644 H       1  <0>         0.0332
     80 H30        41.8386  -16.4571   27.6716 H       1  <0>         0.0332
     81 H31        35.0847  -16.6200   26.3333 H       1  <0>         0.0374
     82 H32        35.1927  -14.8780   25.9453 H       1  <0>         0.0374
     83 H33        33.2917  -13.0501   33.1614 H       1  <0>         0.0530
     84 H34        32.6123  -11.4217   33.5222 H       1  <0>         0.0530
     85 H35        37.3070  -20.7636   27.4913 H       1  <0>         0.0622
     86 H36        38.0671  -21.8468   26.2790 H       1  <0>         0.0622
     87 H37        37.5552  -16.5224   26.1607 H       1  <0>         0.0613
     88 H38        36.5788   -8.3440   33.6798 H       1  <0>         0.0364
     89 H39        38.4171  -12.6197   31.1432 H       1  <0>         0.0318
     90 H40        39.0842  -17.5243   28.3421 H       1  <0>         0.0531
     91 H41        39.1068  -14.9253   28.4629 H       1  <0>         0.0657
     92 H42        36.8194  -12.8827   29.9095 H       1  <0>         0.0598
     93 H43        39.7185  -17.7136   25.4863 H       1  <0>         0.1514
     94 H44        35.7623  -13.4008   32.6101 H       1  <0>         0.1510
     95 H45        37.3789  -13.7586   28.6148 H       1  <0>         0.1546
     96 H46        40.6837  -14.6577   26.5932 H       1  <0>         0.2103
@<TRIPOS>BOND
     1     1    29    1
     2     2    29    1
     3     3    30    1
     4     4    30    1
     5     5    43    1
     6     6     8   ar
     7     6     9   ar
     8     7    10   ar
     9     7    11   ar
    10     8    12   ar
    11     9    13   ar
    12    10    14   ar
    13    11    15   ar
    14    12    24   ar
    15    13    24   ar
    16    14    25   ar
    17    15    25   ar
    18    16    26    2
    19    16    38    1
    20    17    27    2
    21    17    49    1
    22    18    38    2
    23    18    50    1
    24    19    24    1
    25    19    31    1
    26    20    25    1
    27    20    34    1
    28    21    27    1
    29    21    43    1
    30    22    26    1
    31    22    48    1
    32    23    32    1
    33    23    34    2
    34    26    50    1
    35    27    39    1
    36    28    29    1
    37    28    39    2
    38    28    49    1
    39    30    33    1
    40    31    32    1
    41    31    40    1
    42    32    44    1
    43    33    35    1
    44    33    41    1
    45    34    42    1
    46    35    42   am
    47    35    45    2
    48    36    41   am
    49    36    43   am
    50    36    46    2
    51    37    40   am
    52    37    47    2
    53    37    48    1
    54     1    51    1
    55     1    52    1
    56     1    53    1
    57     2    54    1
    58     2    55    1
    59     2    56    1
    60     3    57    1
    61     3    58    1
    62     3    59    1
    63     4    60    1
    64     4    61    1
    65     4    62    1
    66     5    63    1
    67     5    64    1
    68     5    65    1
    69     6    66    1
    70     7    67    1
    71     8    68    1
    72     9    69    1
    73    10    70    1
    74    11    71    1
    75    12    72    1
    76    13    73    1
    77    14    74    1
    78    15    75    1
    79    16    76    1
    80    17    77    1
    81    18    78    1
    82    19    79    1
    83    19    80    1
    84    20    81    1
    85    20    82    1
    86    21    83    1
    87    21    84    1
    88    22    85    1
    89    22    86    1
    90    23    87    1
    91    29    88    1
    92    30    89    1
    93    31    90    1
    94    32    91    1
    95    33    92    1
    96    40    93    1
    97    41    94    1
    98    42    95    1
    99    44    96    1
@<TRIPOS>SUBSTRUCTURE
     1 <0>         1 TEMP              0 ****  ****    0 ROOT

