
##########                                Name:        RIT_600_3NXU
##########                    Molecular_Weight:             718.941
##########                DOCK_Rotatable_Bonds:                  23
##########                       Formal_Charge:         0.000100225
##########                     HBond_Acceptors:                  13
##########                        HBond_Donors:                   4
##########                         Heavy_Atoms:                  50
##########                            HA_RMSDs:               1.079
##########                            HA_RMSDh:               1.079
##########                            HA_RMSDm:               1.035
##########                          Grid_Score:          -16.553980
##########                     Grid_vdw_energy:          -13.502996
##########                      Grid_es_energy:           -3.050983
##########           Internal_energy_repulsive:           84.550056

@<TRIPOS>MOLECULE
RIT_600_3NXU
 96 99 1 0 0
SMALL
USER_CHARGES


@<TRIPOS>ATOM
      1 C1         34.6791   -8.5222   36.2275 C.3     1  <0>        -0.0567
      2 C2         35.7052   -8.4999   33.9708 C.3     1  <0>        -0.0567
      3 C3         38.2177  -13.0129   32.4825 C.3     1  <0>        -0.0605
      4 C4         39.1160  -13.7978   30.0975 C.3     1  <0>        -0.0605
      5 C5         31.9820  -13.0165   32.4011 C.3     1  <0>         0.0050
      6 C6         41.9825  -21.0120   30.1418 C.ar    1  <0>        -0.0617
      7 C7         31.5369  -14.9786   28.4655 C.ar    1  <0>        -0.0617
      8 C8         41.2175  -19.9410   30.8170 C.ar    1  <0>        -0.0615
      9 C9         42.4848  -20.8242   28.7221 C.ar    1  <0>        -0.0615
     10 C10        32.3134  -13.8909   27.7903 C.ar    1  <0>        -0.0615
     11 C11        31.9576  -16.4072   28.3622 C.ar    1  <0>        -0.0615
     12 C12        40.9599  -18.6781   30.0697 C.ar    1  <0>        -0.0585
     13 C13        42.2308  -19.5794   27.9738 C.ar    1  <0>        -0.0585
     14 C14        33.5743  -14.2025   26.9966 C.ar    1  <0>        -0.0582
     15 C15        33.1854  -16.7302   27.5815 C.ar    1  <0>        -0.0582
     16 C16        35.9123  -21.3606   23.9888 C.2     1  <0>         0.0401
     17 C17        35.7775  -13.3768   35.4606 C.2     1  <0>         0.0002
     18 C18        33.9555  -21.8414   25.0388 C.2     1  <0>         0.0650
     19 C19        41.1536  -17.2439   27.9739 C.3     1  <0>        -0.0064
     20 C20        35.2044  -16.0089   26.2503 C.3     1  <0>         0.0105
     21 C21        33.7950  -14.0144   34.0378 C.3     1  <0>         0.0585
     22 C22        37.4395  -21.1837   25.7650 C.3     1  <0>         0.0912
     23 C23        37.5912  -16.3826   26.9482 C.2     1  <0>        -0.0367
     24 C24        41.4805  -18.5146   28.6229 C.ar    1  <0>        -0.0455
     25 C25        33.9901  -15.5937   26.9038 C.ar    1  <0>        -0.0419
     26 C26        36.3876  -21.3842   25.1131 C.2     1  <0>         0.0354
     27 C27        34.7205  -13.0178   34.7153 C.2     1  <0>         0.0660
     28 C28        35.1588  -10.8058   35.0784 C.2     1  <0>         0.0812
     29 C29        34.7933   -9.2477   34.9230 C.3     1  <0>         0.0021
     30 C30        37.8441  -13.4303   31.0034 C.3     1  <0>        -0.0197
     31 C31        39.6691  -17.3318   27.4339 C.3     1  <0>         0.0587
     32 C32        38.9103  -16.0502   27.6802 C.3     1  <0>         0.0937
     33 C33        36.3362  -14.0423   30.5746 C.3     1  <0>         0.1034
     34 C34        36.4268  -15.9184   27.3752 C.2     1  <0>         0.0134
     35 C35        36.3189  -15.2767   29.8752 C.2     1  <0>         0.2376
     36 C36        34.2934  -13.5390   31.5207 C.2     1  <0>         0.3029
     37 C37        38.6824  -19.3445   26.2594 C.2     1  <0>         0.3529
     38 N1         34.6097  -21.6158   23.9205 N.2     1  <0>        -0.2554
     39 N2         34.4743  -11.7201   34.5607 N.2     1  <0>        -0.2471
     40 N3         39.3298  -18.1175   26.0898 N.am    1  <0>        -0.2854
     41 N4         35.7082  -14.0289   31.7218 N.am    1  <0>        -0.2877
     42 N5         36.5368  -14.9810   28.5369 N.am    1  <0>        -0.2875
     43 N6         33.3739  -13.5055   32.6220 N.am    1  <0>        -0.2829
     44 O1         39.6340  -14.9905   26.7916 O.3     1  <0>        -0.3859
     45 O2         35.9170  -16.3375   30.2849 O.2     1  <0>        -0.2734
     46 O3         33.8946  -13.1415   30.2726 O.2     1  <0>        -0.2526
     47 O4         38.4292  -19.8079   27.5875 O.2     1  <0>        -0.2413
     48 O5         38.0859  -19.9673   25.2667 O.3     1  <0>        -0.2946
     49 S1         36.3785  -11.7419   35.9116 S.3     1  <0>        -0.0800
     50 S2         35.0951  -21.6915   26.1455 S.3     1  <0>        -0.0781
     51 H1         34.0140   -9.0816   36.9017 H       1  <0>         0.0236
     52 H2         35.6752   -8.4334   36.6859 H       1  <0>         0.0236
     53 H3         34.2646   -7.5182   36.0535 H       1  <0>         0.0236
     54 H4         35.7743   -9.0499   33.0206 H       1  <0>         0.0236
     55 H5         35.2963   -7.4959   33.7841 H       1  <0>         0.0236
     56 H6         36.7069   -8.4111   34.4165 H       1  <0>         0.0236
     57 H7         37.2995  -12.7765   33.0403 H       1  <0>         0.0233
     58 H8         38.7429  -13.8438   32.9763 H       1  <0>         0.0233
     59 H9         38.8707  -12.1280   32.4597 H       1  <0>         0.0233
     60 H10        38.7795  -14.0766   29.0880 H       1  <0>         0.0233
     61 H11        39.7843  -12.9264   30.0335 H       1  <0>         0.0233
     62 H12        39.6565  -14.6422   30.5501 H       1  <0>         0.0233
     63 H13        31.8656  -12.7005   31.3540 H       1  <0>         0.0429
     64 H14        31.2700  -13.8257   32.6210 H       1  <0>         0.0429
     65 H15        31.7837  -12.1628   33.0658 H       1  <0>         0.0429
     66 H16        42.1854  -21.9356   30.6636 H       1  <0>         0.0618
     67 H17        30.6567  -14.7251   29.0376 H       1  <0>         0.0618
     68 H18        40.8549  -20.0712   31.8259 H       1  <0>         0.0618
     69 H19        43.0408  -21.6202   28.2493 H       1  <0>         0.0618
     70 H20        31.9734  -12.8688   27.8677 H       1  <0>         0.0618
     71 H21        31.3860  -17.1880   28.8418 H       1  <0>         0.0618
     72 H22        40.4092  -17.8763   30.5390 H       1  <0>         0.0620
     73 H23        42.5943  -19.4602   26.9639 H       1  <0>         0.0620
     74 H24        34.1411  -13.4174   26.5184 H       1  <0>         0.0620
     75 H25        33.5133  -17.7550   27.4885 H       1  <0>         0.0620
     76 H26        36.5072  -21.1477   23.1130 H       1  <0>         0.0838
     77 H27        36.1551  -14.3564   35.7142 H       1  <0>         0.0712
     78 H28        32.9089  -22.0708   25.1743 H       1  <0>         0.0907
     79 H29        41.2403  -16.4205   28.6982 H       1  <0>         0.0332
     80 H30        41.8455  -17.0614   27.1385 H       1  <0>         0.0332
     81 H31        35.1037  -17.0401   25.8809 H       1  <0>         0.0374
     82 H32        35.4225  -15.3483   25.3983 H       1  <0>         0.0374
     83 H33        34.3184  -14.9761   33.9326 H       1  <0>         0.0530
     84 H34        32.8938  -14.1442   34.6551 H       1  <0>         0.0530
     85 H35        37.1959  -21.0623   26.8308 H       1  <0>         0.0622
     86 H36        38.1191  -22.0399   25.6421 H       1  <0>         0.0622
     87 H37        37.6193  -17.0079   26.0680 H       1  <0>         0.0613
     88 H38        33.7909   -9.2595   34.4703 H       1  <0>         0.0364
     89 H39        37.4518  -12.4610   30.6621 H       1  <0>         0.0318
     90 H40        39.2453  -18.1152   28.0794 H       1  <0>         0.0531
     91 H41        38.8130  -15.7170   28.7240 H       1  <0>         0.0657
     92 H42        35.8451  -13.4387   29.7972 H       1  <0>         0.0598
     93 H43        39.5640  -17.7574   25.1868 H       1  <0>         0.1514
     94 H44        36.1043  -14.3014   32.5986 H       1  <0>         0.1510
     95 H45        36.7957  -14.0384   28.3256 H       1  <0>         0.1546
     96 H46        40.4189  -14.6887   27.2337 H       1  <0>         0.2103
@<TRIPOS>BOND
     1     1    29    1
     2     2    29    1
     3     3    30    1
     4     4    30    1
     5     5    43    1
     6     6     8   ar
     7     6     9   ar
     8     7    10   ar
     9     7    11   ar
    10     8    12   ar
    11     9    13   ar
    12    10    14   ar
    13    11    15   ar
    14    12    24   ar
    15    13    24   ar
    16    14    25   ar
    17    15    25   ar
    18    16    26    2
    19    16    38    1
    20    17    27    2
    21    17    49    1
    22    18    38    2
    23    18    50    1
    24    19    24    1
    25    19    31    1
    26    20    25    1
    27    20    34    1
    28    21    27    1
    29    21    43    1
    30    22    26    1
    31    22    48    1
    32    23    32    1
    33    23    34    2
    34    26    50    1
    35    27    39    1
    36    28    29    1
    37    28    39    2
    38    28    49    1
    39    30    33    1
    40    31    32    1
    41    31    40    1
    42    32    44    1
    43    33    35    1
    44    33    41    1
    45    34    42    1
    46    35    42   am
    47    35    45    2
    48    36    41   am
    49    36    43   am
    50    36    46    2
    51    37    40   am
    52    37    47    2
    53    37    48    1
    54     1    51    1
    55     1    52    1
    56     1    53    1
    57     2    54    1
    58     2    55    1
    59     2    56    1
    60     3    57    1
    61     3    58    1
    62     3    59    1
    63     4    60    1
    64     4    61    1
    65     4    62    1
    66     5    63    1
    67     5    64    1
    68     5    65    1
    69     6    66    1
    70     7    67    1
    71     8    68    1
    72     9    69    1
    73    10    70    1
    74    11    71    1
    75    12    72    1
    76    13    73    1
    77    14    74    1
    78    15    75    1
    79    16    76    1
    80    17    77    1
    81    18    78    1
    82    19    79    1
    83    19    80    1
    84    20    81    1
    85    20    82    1
    86    21    83    1
    87    21    84    1
    88    22    85    1
    89    22    86    1
    90    23    87    1
    91    29    88    1
    92    30    89    1
    93    31    90    1
    94    32    91    1
    95    33    92    1
    96    40    93    1
    97    41    94    1
    98    42    95    1
    99    44    96    1
@<TRIPOS>SUBSTRUCTURE
     1 <0>         1 TEMP              0 ****  ****    0 ROOT

