
##########                                Name:        RIT_600_3NXU
##########                    Molecular_Weight:             718.941
##########                DOCK_Rotatable_Bonds:                  23
##########                       Formal_Charge:         0.000100225
##########                     HBond_Acceptors:                  13
##########                        HBond_Donors:                   4
##########                         Heavy_Atoms:                  50
##########                            HA_RMSDs:               0.534
##########                            HA_RMSDh:               0.534
##########                            HA_RMSDm:               0.526
##########                          Grid_Score:          -75.999611
##########                     Grid_vdw_energy:          -74.206146
##########                      Grid_es_energy:           -1.793466
##########           Internal_energy_repulsive:           65.594269

@<TRIPOS>MOLECULE
RIT_600_3NXU
 96 99 1 0 0
SMALL
USER_CHARGES


@<TRIPOS>ATOM
      1 C1         36.7934   -7.5619   35.8381 C.3     1  <0>        -0.0567
      2 C2         38.3098   -8.5810   34.1623 C.3     1  <0>        -0.0567
      3 C3         38.2514  -12.7308   33.2842 C.3     1  <0>        -0.0605
      4 C4         39.0479  -14.8365   31.8551 C.3     1  <0>        -0.0605
      5 C5         33.0129  -10.3925   31.2781 C.3     1  <0>         0.0050
      6 C6         42.0387  -21.0648   29.7449 C.ar    1  <0>        -0.0617
      7 C7         31.8620  -15.0426   29.9131 C.ar    1  <0>        -0.0617
      8 C8         41.0706  -20.2268   30.4858 C.ar    1  <0>        -0.0615
      9 C9         42.7290  -20.5317   28.5030 C.ar    1  <0>        -0.0615
     10 C10        32.3231  -13.9027   29.0586 C.ar    1  <0>        -0.0615
     11 C11        32.4567  -16.4045   29.7719 C.ar    1  <0>        -0.0615
     12 C12        40.7980  -18.8508   29.9839 C.ar    1  <0>        -0.0585
     13 C13        42.4620  -19.1728   27.9969 C.ar    1  <0>        -0.0585
     14 C14        33.4333  -14.0883   28.0340 C.ar    1  <0>        -0.0582
     15 C15        33.5390  -16.6050   28.7671 C.ar    1  <0>        -0.0582
     16 C16        35.5448  -21.2254   24.9057 C.2     1  <0>         0.0401
     17 C17        34.9916  -12.2452   35.4075 C.2     1  <0>         0.0002
     18 C18        33.7813  -21.2423   26.3383 C.2     1  <0>         0.0650
     19 C19        41.1565  -16.9771   28.2963 C.3     1  <0>        -0.0064
     20 C20        35.1280  -15.6990   27.0283 C.3     1  <0>         0.0105
     21 C21        33.5030  -11.8738   33.4057 C.3     1  <0>         0.0585
     22 C22        37.3890  -20.9543   26.3356 C.3     1  <0>         0.0912
     23 C23        37.6058  -16.0148   27.3183 C.2     1  <0>        -0.0367
     24 C24        41.5131  -18.3340   28.7139 C.ar    1  <0>        -0.0455
     25 C25        34.0200  -15.4133   27.9028 C.ar    1  <0>        -0.0419
     26 C26        36.2181  -21.1185   25.9185 C.2     1  <0>         0.0354
     27 C27        34.6149  -11.4866   34.3663 C.2     1  <0>         0.0660
     28 C28        36.1766   -9.9060   34.8947 C.2     1  <0>         0.0812
     29 C29        36.8814   -8.4801   34.6589 C.3     1  <0>         0.0021
     30 C30        38.0793  -13.5613   31.9492 C.3     1  <0>        -0.0197
     31 C31        39.6802  -17.0064   27.7282 C.3     1  <0>         0.0587
     32 C32        39.0191  -15.6527   27.8257 C.3     1  <0>         0.0937
     33 C33        36.6699  -13.5409   31.0299 C.3     1  <0>         0.1034
     34 C34        36.5169  -15.5836   27.9366 C.2     1  <0>         0.0134
     35 C35        36.3141  -14.7468   30.3722 C.2     1  <0>         0.2376
     36 C36        34.9364  -12.0322   31.2307 C.2     1  <0>         0.3029
     37 C37        38.5456  -19.0366   26.7307 C.2     1  <0>         0.3529
     38 N1         34.2333  -21.3069   25.1050 N.2     1  <0>        -0.2554
     39 N2         35.2522  -10.3370   34.1651 N.2     1  <0>        -0.2471
     40 N3         39.3063  -17.8958   26.4600 N.am    1  <0>        -0.2854
     41 N4         35.7980  -13.0830   31.8906 N.am    1  <0>        -0.2877
     42 N5         36.7945  -14.6507   29.0738 N.am    1  <0>        -0.2875
     43 N6         33.8499  -11.4294   31.9487 N.am    1  <0>        -0.2829
     44 O1         39.6775  -14.8132   26.6863 O.3     1  <0>        -0.3859
     45 O2         35.5171  -15.5705   30.7477 O.2     1  <0>        -0.2734
     46 O3         35.1952  -11.6725   29.9352 O.2     1  <0>        -0.2526
     47 O4         38.2164  -19.3342   28.0893 O.2     1  <0>        -0.2413
     48 O5         37.9212  -19.7052   25.7861 O.3     1  <0>        -0.2946
     49 S1         36.3048  -11.2029   36.0608 S.3     1  <0>        -0.0800
     50 S2         35.1180  -21.0606   27.1903 S.3     1  <0>        -0.0781
     51 H1         35.7499   -7.5038   36.1812 H       1  <0>         0.0236
     52 H2         37.4257   -7.9482   36.6513 H       1  <0>         0.0236
     53 H3         37.1404   -6.5591   35.5485 H       1  <0>         0.0236
     54 H4         38.3507   -9.2593   33.2974 H       1  <0>         0.0236
     55 H5         38.6651   -7.5838   33.8632 H       1  <0>         0.0236
     56 H6         38.9504   -8.9730   34.9660 H       1  <0>         0.0236
     57 H7         37.5584  -11.8765   33.2772 H       1  <0>         0.0233
     58 H8         38.0301  -13.3751   34.1479 H       1  <0>         0.0233
     59 H9         39.2857  -12.3631   33.3563 H       1  <0>         0.0233
     60 H10        38.8721  -15.3618   30.9047 H       1  <0>         0.0233
     61 H11        40.0957  -14.5052   31.9023 H       1  <0>         0.0233
     62 H12        38.8402  -15.5172   32.6939 H       1  <0>         0.0233
     63 H13        33.4005  -10.2061   30.2657 H       1  <0>         0.0429
     64 H14        31.9733  -10.7463   31.2132 H       1  <0>         0.0429
     65 H15        33.0474   -9.4603   31.8612 H       1  <0>         0.0429
     66 H16        42.2561  -22.0645   30.0908 H       1  <0>         0.0618
     67 H17        31.0852  -14.8764   30.6448 H       1  <0>         0.0618
     68 H18        40.5742  -20.6029   31.3682 H       1  <0>         0.0618
     69 H19        43.4317  -21.1619   27.9781 H       1  <0>         0.0618
     70 H20        31.8605  -12.9334   29.1711 H       1  <0>         0.0618
     71 H21        32.1108  -17.2250   30.3832 H       1  <0>         0.0618
     72 H22        40.1005  -18.2139   30.5075 H       1  <0>         0.0620
     73 H23        42.9607  -18.8072   27.1116 H       1  <0>         0.0620
     74 H24        33.7742  -13.2642   27.4249 H       1  <0>         0.0620
     75 H25        33.9872  -17.5796   28.6420 H       1  <0>         0.0620
     76 H26        35.9833  -21.2520   23.9191 H       1  <0>         0.0838
     77 H27        34.6175  -13.1983   35.7512 H       1  <0>         0.0712
     78 H28        32.7607  -21.2984   26.6871 H       1  <0>         0.0907
     79 H29        41.2130  -16.2937   29.1565 H       1  <0>         0.0332
     80 H30        41.8508  -16.6309   27.5166 H       1  <0>         0.0332
     81 H31        35.0305  -16.7117   26.6100 H       1  <0>         0.0374
     82 H32        35.1545  -14.9758   26.1999 H       1  <0>         0.0374
     83 H33        33.3747  -12.9661   33.4268 H       1  <0>         0.0530
     84 H34        32.5706  -11.3814   33.7188 H       1  <0>         0.0530
     85 H35        37.3857  -20.9027   27.4344 H       1  <0>         0.0622
     86 H36        38.0176  -21.7973   26.0127 H       1  <0>         0.0622
     87 H37        37.5032  -16.6338   26.4392 H       1  <0>         0.0613
     88 H38        36.2881   -8.0271   33.8510 H       1  <0>         0.0364
     89 H39        38.4475  -12.8015   31.2442 H       1  <0>         0.0318
     90 H40        39.1842  -17.6862   28.4366 H       1  <0>         0.0531
     91 H41        39.0670  -15.1394   28.7974 H       1  <0>         0.0657
     92 H42        36.7671  -12.9180   30.1285 H       1  <0>         0.0598
     93 H43        39.5961  -17.6542   25.5339 H       1  <0>         0.1514
     94 H44        35.7144  -13.3829   32.8408 H       1  <0>         0.1510
     95 H45        37.3916  -13.8731   28.8763 H       1  <0>         0.1546
     96 H46        40.6134  -14.7521   26.8377 H       1  <0>         0.2103
@<TRIPOS>BOND
     1     1    29    1
     2     2    29    1
     3     3    30    1
     4     4    30    1
     5     5    43    1
     6     6     8   ar
     7     6     9   ar
     8     7    10   ar
     9     7    11   ar
    10     8    12   ar
    11     9    13   ar
    12    10    14   ar
    13    11    15   ar
    14    12    24   ar
    15    13    24   ar
    16    14    25   ar
    17    15    25   ar
    18    16    26    2
    19    16    38    1
    20    17    27    2
    21    17    49    1
    22    18    38    2
    23    18    50    1
    24    19    24    1
    25    19    31    1
    26    20    25    1
    27    20    34    1
    28    21    27    1
    29    21    43    1
    30    22    26    1
    31    22    48    1
    32    23    32    1
    33    23    34    2
    34    26    50    1
    35    27    39    1
    36    28    29    1
    37    28    39    2
    38    28    49    1
    39    30    33    1
    40    31    32    1
    41    31    40    1
    42    32    44    1
    43    33    35    1
    44    33    41    1
    45    34    42    1
    46    35    42   am
    47    35    45    2
    48    36    41   am
    49    36    43   am
    50    36    46    2
    51    37    40   am
    52    37    47    2
    53    37    48    1
    54     1    51    1
    55     1    52    1
    56     1    53    1
    57     2    54    1
    58     2    55    1
    59     2    56    1
    60     3    57    1
    61     3    58    1
    62     3    59    1
    63     4    60    1
    64     4    61    1
    65     4    62    1
    66     5    63    1
    67     5    64    1
    68     5    65    1
    69     6    66    1
    70     7    67    1
    71     8    68    1
    72     9    69    1
    73    10    70    1
    74    11    71    1
    75    12    72    1
    76    13    73    1
    77    14    74    1
    78    15    75    1
    79    16    76    1
    80    17    77    1
    81    18    78    1
    82    19    79    1
    83    19    80    1
    84    20    81    1
    85    20    82    1
    86    21    83    1
    87    21    84    1
    88    22    85    1
    89    22    86    1
    90    23    87    1
    91    29    88    1
    92    30    89    1
    93    31    90    1
    94    32    91    1
    95    33    92    1
    96    40    93    1
    97    41    94    1
    98    42    95    1
    99    44    96    1
@<TRIPOS>SUBSTRUCTURE
     1 <0>         1 TEMP              0 ****  ****    0 ROOT

