
##########                                Name:        RIT_600_3NXU
##########                    Molecular_Weight:             718.941
##########                DOCK_Rotatable_Bonds:                  23
##########                       Formal_Charge:         0.000100225
##########                     HBond_Acceptors:                  13
##########                        HBond_Donors:                   4
##########                         Heavy_Atoms:                  50
##########                            HA_RMSDs:               0.776
##########                            HA_RMSDh:               0.776
##########                            HA_RMSDm:               0.769
##########                          Grid_Score:          -41.533470
##########                     Grid_vdw_energy:          -40.577549
##########                      Grid_es_energy:           -0.955920
##########           Internal_energy_repulsive:           66.602448

@<TRIPOS>MOLECULE
RIT_600_3NXU
 96 99 1 0 0
SMALL
USER_CHARGES


@<TRIPOS>ATOM
      1 C1         35.0625   -7.7430   35.4022 C.3     1  <0>        -0.0567
      2 C2         37.2372   -8.4065   34.4139 C.3     1  <0>        -0.0567
      3 C3         37.9702  -12.4497   32.2369 C.3     1  <0>        -0.0605
      4 C4         38.9774  -14.5247   30.8985 C.3     1  <0>        -0.0605
      5 C5         32.6018  -10.6984   30.6779 C.3     1  <0>         0.0050
      6 C6         41.8604  -20.9097   30.3435 C.ar    1  <0>        -0.0617
      7 C7         31.8961  -15.9815   28.1107 C.ar    1  <0>        -0.0617
      8 C8         40.8991  -19.9390   30.9109 C.ar    1  <0>        -0.0615
      9 C9         42.6472  -20.5740   29.0900 C.ar    1  <0>        -0.0615
     10 C10        32.3510  -14.6501   27.5983 C.ar    1  <0>        -0.0615
     11 C11        32.6706  -17.2254   27.8252 C.ar    1  <0>        -0.0615
     12 C12        40.7301  -18.6280   30.2236 C.ar    1  <0>        -0.0585
     13 C13        42.4831  -19.2808   28.4011 C.ar    1  <0>        -0.0585
     14 C14        33.6340  -14.5162   26.7903 C.ar    1  <0>        -0.0582
     15 C15        33.9248  -17.1126   27.0281 C.ar    1  <0>        -0.0582
     16 C16        35.1197  -20.6880   25.5313 C.2     1  <0>         0.0401
     17 C17        34.5233  -12.7023   34.6889 C.2     1  <0>         0.0002
     18 C18        33.6310  -20.2745   27.1973 C.2     1  <0>         0.0650
     19 C19        41.2839  -17.0064   28.3392 C.3     1  <0>        -0.0064
     20 C20        35.6619  -15.7227   25.8367 C.3     1  <0>         0.0105
     21 C21        33.1547  -12.4329   32.5877 C.3     1  <0>         0.0585
     22 C22        37.1614  -20.8784   26.6776 C.3     1  <0>         0.0912
     23 C23        38.0340  -16.0408   26.6082 C.2     1  <0>        -0.0367
     24 C24        41.5423  -18.3132   28.9459 C.ar    1  <0>        -0.0455
     25 C25        34.3943  -15.7270   26.5202 C.ar    1  <0>        -0.0419
     26 C26        35.9381  -20.7504   26.4351 C.2     1  <0>         0.0354
     27 C27        34.0960  -11.9369   33.6725 C.2     1  <0>         0.0660
     28 C28        35.2910  -10.1538   34.4532 C.2     1  <0>         0.0812
     29 C29        35.7355   -8.6101   34.3842 C.3     1  <0>         0.0021
     30 C30        37.8689  -13.3664   30.9519 C.3     1  <0>        -0.0197
     31 C31        39.8673  -17.0588   27.6366 C.3     1  <0>         0.0587
     32 C32        39.3237  -15.6747   27.3758 C.3     1  <0>         0.0937
     33 C33        36.4483  -13.5590   30.0705 C.3     1  <0>         0.1034
     34 C34        36.8482  -15.5971   26.9963 C.2     1  <0>         0.0134
     35 C35        36.2802  -14.7889   29.3833 C.2     1  <0>         0.2376
     36 C36        34.6230  -12.1986   30.4430 C.2     1  <0>         0.3029
     37 C37        38.4803  -19.0374   26.8849 C.2     1  <0>         0.3529
     38 N1         33.8706  -20.4462   25.9157 N.2     1  <0>        -0.2554
     39 N2         34.5231  -10.6790   33.6123 N.2     1  <0>        -0.2471
     40 N3         39.5298  -18.1764   26.5522 N.am    1  <0>        -0.2854
     41 N4         35.5390  -13.2791   30.9679 N.am    1  <0>        -0.2877
     42 N5         36.9044  -14.6474   28.1519 N.am    1  <0>        -0.2875
     43 N6         33.4923  -11.7681   31.2148 N.am    1  <0>        -0.2829
     44 O1         40.2929  -15.0680   26.3132 O.3     1  <0>        -0.3859
     45 O2         35.5176  -15.6796   29.6655 O.2     1  <0>        -0.2734
     46 O3         34.8758  -11.6455   29.2163 O.2     1  <0>        -0.2526
     47 O4         37.8452  -18.8845   28.1560 O.2     1  <0>        -0.2413
     48 O5         37.8978  -19.8115   25.9957 O.3     1  <0>        -0.2946
     49 S1         35.5647  -11.5020   35.5330 S.3     1  <0>        -0.0800
     50 S2         35.0807  -20.4266   27.8462 S.3     1  <0>        -0.0781
     51 H1         33.9755   -7.9068   35.3630 H       1  <0>         0.0236
     52 H2         35.4357   -7.9979   36.4051 H       1  <0>         0.0236
     53 H3         35.2820   -6.6868   35.1867 H       1  <0>         0.0236
     54 H4         37.7102   -9.0522   33.6594 H       1  <0>         0.0236
     55 H5         37.4688   -7.3541   34.1927 H       1  <0>         0.0236
     56 H6         37.6225   -8.6652   35.4112 H       1  <0>         0.0236
     57 H7         37.1823  -11.6828   32.2038 H       1  <0>         0.0233
     58 H8         37.8430  -13.0671   33.1384 H       1  <0>         0.0233
     59 H9         38.9557  -11.9619   32.2623 H       1  <0>         0.0233
     60 H10        38.8448  -15.1179   29.9817 H       1  <0>         0.0233
     61 H11        39.9803  -14.0726   30.9007 H       1  <0>         0.0233
     62 H12        38.8675  -15.1778   31.7768 H       1  <0>         0.0233
     63 H13        32.9902  -10.3488   29.7100 H       1  <0>         0.0429
     64 H14        31.5869  -11.1003   30.5421 H       1  <0>         0.0429
     65 H15        32.5715   -9.8572   31.3861 H       1  <0>         0.0429
     66 H16        42.0035  -21.8656   30.8255 H       1  <0>         0.0618
     67 H17        30.9914  -16.0430   28.6973 H       1  <0>         0.0618
     68 H18        40.3342  -20.1746   31.8007 H       1  <0>         0.0618
     69 H19        43.3431  -21.2987   28.6937 H       1  <0>         0.0618
     70 H20        31.7593  -13.7708   27.8054 H       1  <0>         0.0618
     71 H21        32.3301  -18.1841   28.1877 H       1  <0>         0.0618
     72 H22        40.0398  -17.8971   30.6180 H       1  <0>         0.0620
     73 H23        43.0498  -19.0560   27.5097 H       1  <0>         0.0620
     74 H24        33.9688  -13.5548   26.4296 H       1  <0>         0.0620
     75 H25        34.5052  -17.9956   26.8050 H       1  <0>         0.0620
     76 H26        35.3911  -20.8199   24.4944 H       1  <0>         0.0838
     77 H27        34.3065  -13.7327   34.9289 H       1  <0>         0.0712
     78 H28        32.6888  -20.0795   27.6879 H       1  <0>         0.0907
     79 H29        41.2884  -16.2262   29.1147 H       1  <0>         0.0332
     80 H30        42.0620  -16.7783   27.5960 H       1  <0>         0.0332
     81 H31        35.7878  -16.6532   25.2637 H       1  <0>         0.0374
     82 H32        35.7168  -14.8708   25.1431 H       1  <0>         0.0374
     83 H33        33.2589  -13.5238   32.4935 H       1  <0>         0.0530
     84 H34        32.1213  -12.1781   32.8653 H       1  <0>         0.0530
     85 H35        37.3321  -20.8100   27.7621 H       1  <0>         0.0622
     86 H36        37.5092  -21.8571   26.3154 H       1  <0>         0.0622
     87 H37        38.1011  -16.6731   25.7351 H       1  <0>         0.0613
     88 H38        35.3829   -8.2818   33.3953 H       1  <0>         0.0364
     89 H39        38.1317  -12.6089   30.1988 H       1  <0>         0.0318
     90 H40        39.2516  -17.5319   28.4157 H       1  <0>         0.0531
     91 H41        39.1972  -15.0129   28.2452 H       1  <0>         0.0657
     92 H42        36.4114  -12.9039   29.1876 H       1  <0>         0.0598
     93 H43        40.0343  -18.2563   25.6924 H       1  <0>         0.1514
     94 H44        35.4618  -13.7142   31.8649 H       1  <0>         0.1510
     95 H45        37.4517  -13.8205   28.0225 H       1  <0>         0.1546
     96 H46        41.1401  -14.9074   26.7119 H       1  <0>         0.2103
@<TRIPOS>BOND
     1     1    29    1
     2     2    29    1
     3     3    30    1
     4     4    30    1
     5     5    43    1
     6     6     8   ar
     7     6     9   ar
     8     7    10   ar
     9     7    11   ar
    10     8    12   ar
    11     9    13   ar
    12    10    14   ar
    13    11    15   ar
    14    12    24   ar
    15    13    24   ar
    16    14    25   ar
    17    15    25   ar
    18    16    26    2
    19    16    38    1
    20    17    27    2
    21    17    49    1
    22    18    38    2
    23    18    50    1
    24    19    24    1
    25    19    31    1
    26    20    25    1
    27    20    34    1
    28    21    27    1
    29    21    43    1
    30    22    26    1
    31    22    48    1
    32    23    32    1
    33    23    34    2
    34    26    50    1
    35    27    39    1
    36    28    29    1
    37    28    39    2
    38    28    49    1
    39    30    33    1
    40    31    32    1
    41    31    40    1
    42    32    44    1
    43    33    35    1
    44    33    41    1
    45    34    42    1
    46    35    42   am
    47    35    45    2
    48    36    41   am
    49    36    43   am
    50    36    46    2
    51    37    40   am
    52    37    47    2
    53    37    48    1
    54     1    51    1
    55     1    52    1
    56     1    53    1
    57     2    54    1
    58     2    55    1
    59     2    56    1
    60     3    57    1
    61     3    58    1
    62     3    59    1
    63     4    60    1
    64     4    61    1
    65     4    62    1
    66     5    63    1
    67     5    64    1
    68     5    65    1
    69     6    66    1
    70     7    67    1
    71     8    68    1
    72     9    69    1
    73    10    70    1
    74    11    71    1
    75    12    72    1
    76    13    73    1
    77    14    74    1
    78    15    75    1
    79    16    76    1
    80    17    77    1
    81    18    78    1
    82    19    79    1
    83    19    80    1
    84    20    81    1
    85    20    82    1
    86    21    83    1
    87    21    84    1
    88    22    85    1
    89    22    86    1
    90    23    87    1
    91    29    88    1
    92    30    89    1
    93    31    90    1
    94    32    91    1
    95    33    92    1
    96    40    93    1
    97    41    94    1
    98    42    95    1
    99    44    96    1
@<TRIPOS>SUBSTRUCTURE
     1 <0>         1 TEMP              0 ****  ****    0 ROOT

