
##########                                Name:        RIT_600_3NXU
##########                    Molecular_Weight:             718.941
##########                DOCK_Rotatable_Bonds:                  23
##########                       Formal_Charge:         0.000100225
##########                     HBond_Acceptors:                  13
##########                        HBond_Donors:                   4
##########                         Heavy_Atoms:                  50
##########                            HA_RMSDs:               0.587
##########                            HA_RMSDh:               0.587
##########                            HA_RMSDm:               0.580
##########                          Grid_Score:          -73.530075
##########                     Grid_vdw_energy:          -72.339996
##########                      Grid_es_energy:           -1.190077
##########           Internal_energy_repulsive:           67.926712

@<TRIPOS>MOLECULE
RIT_600_3NXU
 96 99 1 0 0
SMALL
USER_CHARGES


@<TRIPOS>ATOM
      1 C1         37.1614   -7.6946   35.3813 C.3     1  <0>        -0.0567
      2 C2         38.6815   -8.9257   33.8582 C.3     1  <0>        -0.0567
      3 C3         38.4964  -13.1285   33.2510 C.3     1  <0>        -0.0605
      4 C4         39.4925  -14.7449   31.3787 C.3     1  <0>        -0.0605
      5 C5         33.1006  -10.7384   31.3889 C.3     1  <0>         0.0050
      6 C6         42.1099  -21.0248   29.3370 C.ar    1  <0>        -0.0617
      7 C7         32.0491  -15.2581   30.0949 C.ar    1  <0>        -0.0617
      8 C8         41.0368  -20.3115   30.0636 C.ar    1  <0>        -0.0615
      9 C9         42.8586  -20.3459   28.2050 C.ar    1  <0>        -0.0615
     10 C10        32.3758  -14.0691   29.2455 C.ar    1  <0>        -0.0615
     11 C11        32.7009  -16.5800   29.8580 C.ar    1  <0>        -0.0615
     12 C12        40.7173  -18.9140   29.6581 C.ar    1  <0>        -0.0585
     13 C13        42.5461  -18.9647   27.7943 C.ar    1  <0>        -0.0585
     14 C14        33.4041  -14.1617   28.1270 C.ar    1  <0>        -0.0582
     15 C15        33.7040  -16.6896   28.7611 C.ar    1  <0>        -0.0582
     16 C16        35.2029  -21.1692   25.2296 C.2     1  <0>         0.0401
     17 C17        35.3024  -12.3742   35.4920 C.2     1  <0>         0.0002
     18 C18        33.3185  -20.2064   26.0569 C.2     1  <0>         0.0650
     19 C19        41.0855  -16.8810   28.1687 C.3     1  <0>        -0.0064
     20 C20        35.0908  -15.6447   26.9298 C.3     1  <0>         0.0105
     21 C21        33.7992  -12.1952   33.4748 C.3     1  <0>         0.0585
     22 C22        36.8106  -20.6914   26.8746 C.3     1  <0>         0.0912
     23 C23        37.5889  -15.9184   27.0177 C.2     1  <0>        -0.0367
     24 C24        41.4938  -18.2473   28.4989 C.ar    1  <0>        -0.0455
     25 C25        34.0468  -15.4475   27.9020 C.ar    1  <0>        -0.0419
     26 C26        35.7189  -20.7762   26.2639 C.2     1  <0>         0.0354
     27 C27        34.9278  -11.7265   34.3778 C.2     1  <0>         0.0660
     28 C28        36.5225  -10.1269   34.7172 C.2     1  <0>         0.0812
     29 C29        37.2493   -8.7483   34.3215 C.3     1  <0>         0.0021
     30 C30        38.3666  -13.6720   31.7713 C.3     1  <0>        -0.0197
     31 C31        39.6148  -16.9310   27.5877 C.3     1  <0>         0.0587
     32 C32        39.0299  -15.5479   27.4331 C.3     1  <0>         0.0937
     33 C33        36.9199  -13.6596   30.9118 C.3     1  <0>         0.1034
     34 C34        36.5426  -15.5387   27.7351 C.2     1  <0>         0.0134
     35 C35        36.5701  -14.8510   30.2251 C.2     1  <0>         0.2376
     36 C36        35.1132  -12.2589   31.2210 C.2     1  <0>         0.3029
     37 C37        38.3692  -19.0367   26.9409 C.2     1  <0>         0.3529
     38 N1         33.9106  -20.8869   25.1001 N.2     1  <0>        -0.2554
     39 N2         35.5829  -10.6174   34.0470 N.2     1  <0>        -0.2471
     40 N3         39.2024  -18.0094   26.4895 N.am    1  <0>        -0.2854
     41 N4         36.0725  -13.2583   31.8236 N.am    1  <0>        -0.2877
     42 N5         36.8887  -14.6506   28.8893 N.am    1  <0>        -0.2875
     43 N6         34.0352  -11.7254   32.0037 N.am    1  <0>        -0.2829
     44 O1         39.7091  -14.9777   26.1485 O.3     1  <0>        -0.3859
     45 O2         35.8784  -15.7493   30.6363 O.2     1  <0>        -0.2734
     46 O3         35.2757  -11.8796   29.9155 O.2     1  <0>        -0.2526
     47 O4         38.0052  -19.0666   28.3227 O.2     1  <0>        -0.2413
     48 O5         37.7164  -19.8257   26.1159 O.3     1  <0>        -0.2946
     49 S1         36.6405  -11.2915   36.0165 S.3     1  <0>        -0.0800
     50 S2         34.5070  -19.9525   27.0907 S.3     1  <0>        -0.0781
     51 H1         36.1152   -7.5829   35.7020 H       1  <0>         0.0236
     52 H2         37.7794   -7.9886   36.2426 H       1  <0>         0.0236
     53 H3         37.5253   -6.7380   34.9782 H       1  <0>         0.0236
     54 H4         38.7224   -9.7031   33.0810 H       1  <0>         0.0236
     55 H5         39.0538   -7.9760   33.4464 H       1  <0>         0.0236
     56 H6         39.3080   -9.2266   34.7108 H       1  <0>         0.0236
     57 H7         37.6946  -12.4012   33.4467 H       1  <0>         0.0233
     58 H8         38.4113  -13.9668   33.9582 H       1  <0>         0.0233
     59 H9         39.4736  -12.6396   33.3775 H       1  <0>         0.0233
     60 H10        39.3385  -15.0757   30.3409 H       1  <0>         0.0233
     61 H11        40.4868  -14.2839   31.4726 H       1  <0>         0.0233
     62 H12        39.4245  -15.6111   32.0533 H       1  <0>         0.0233
     63 H13        33.4180  -10.5253   30.3574 H       1  <0>         0.0429
     64 H14        32.0821  -11.1541   31.3805 H       1  <0>         0.0429
     65 H15        33.1122   -9.8080   31.9755 H       1  <0>         0.0429
     66 H16        42.3627  -22.0375   29.6144 H       1  <0>         0.0618
     67 H17        31.3290  -15.1575   30.8935 H       1  <0>         0.0618
     68 H18        40.4987  -20.7916   30.8676 H       1  <0>         0.0618
     69 H19        43.6379  -20.8866   27.6885 H       1  <0>         0.0618
     70 H20        31.8738  -13.1308   29.4293 H       1  <0>         0.0618
     71 H21        32.4516  -17.4365   30.4669 H       1  <0>         0.0618
     72 H22        39.9428  -18.3661   30.1742 H       1  <0>         0.0620
     73 H23        43.0873  -18.4946   26.9867 H       1  <0>         0.0620
     74 H24        33.6485  -13.3019   27.5208 H       1  <0>         0.0620
     75 H25        34.1908  -17.6336   28.5657 H       1  <0>         0.0620
     76 H26        35.7565  -21.7074   24.4744 H       1  <0>         0.0838
     77 H27        34.9155  -13.2772   35.9407 H       1  <0>         0.0712
     78 H28        32.2861  -19.8968   26.1258 H       1  <0>         0.0907
     79 H29        41.1098  -16.2543   29.0724 H       1  <0>         0.0332
     80 H30        41.7698  -16.4567   27.4192 H       1  <0>         0.0332
     81 H31        34.9891  -16.6334   26.4583 H       1  <0>         0.0374
     82 H32        35.0327  -14.8731   26.1480 H       1  <0>         0.0374
     83 H33        33.7540  -13.2940   33.4978 H       1  <0>         0.0530
     84 H34        32.8503  -11.7739   33.8383 H       1  <0>         0.0530
     85 H35        36.6423  -20.2643   27.8742 H       1  <0>         0.0622
     86 H36        37.2553  -21.6923   26.9766 H       1  <0>         0.0622
     87 H37        37.4312  -16.5005   26.1216 H       1  <0>         0.0613
     88 H38        36.6711   -8.3879   33.4579 H       1  <0>         0.0364
     89 H39        38.5899  -12.7346   31.2408 H       1  <0>         0.0318
     90 H40        39.0755  -17.4471   28.3956 H       1  <0>         0.0531
     91 H41        39.1253  -14.8638   28.2892 H       1  <0>         0.0657
     92 H42        36.9620  -13.0023   30.0307 H       1  <0>         0.0598
     93 H43        39.5181  -17.9549   25.5422 H       1  <0>         0.1514
     94 H44        36.0614  -13.5661   32.7750 H       1  <0>         0.1510
     95 H45        37.4060  -13.8223   28.6742 H       1  <0>         0.1546
     96 H46        40.6344  -14.8398   26.3137 H       1  <0>         0.2103
@<TRIPOS>BOND
     1     1    29    1
     2     2    29    1
     3     3    30    1
     4     4    30    1
     5     5    43    1
     6     6     8   ar
     7     6     9   ar
     8     7    10   ar
     9     7    11   ar
    10     8    12   ar
    11     9    13   ar
    12    10    14   ar
    13    11    15   ar
    14    12    24   ar
    15    13    24   ar
    16    14    25   ar
    17    15    25   ar
    18    16    26    2
    19    16    38    1
    20    17    27    2
    21    17    49    1
    22    18    38    2
    23    18    50    1
    24    19    24    1
    25    19    31    1
    26    20    25    1
    27    20    34    1
    28    21    27    1
    29    21    43    1
    30    22    26    1
    31    22    48    1
    32    23    32    1
    33    23    34    2
    34    26    50    1
    35    27    39    1
    36    28    29    1
    37    28    39    2
    38    28    49    1
    39    30    33    1
    40    31    32    1
    41    31    40    1
    42    32    44    1
    43    33    35    1
    44    33    41    1
    45    34    42    1
    46    35    42   am
    47    35    45    2
    48    36    41   am
    49    36    43   am
    50    36    46    2
    51    37    40   am
    52    37    47    2
    53    37    48    1
    54     1    51    1
    55     1    52    1
    56     1    53    1
    57     2    54    1
    58     2    55    1
    59     2    56    1
    60     3    57    1
    61     3    58    1
    62     3    59    1
    63     4    60    1
    64     4    61    1
    65     4    62    1
    66     5    63    1
    67     5    64    1
    68     5    65    1
    69     6    66    1
    70     7    67    1
    71     8    68    1
    72     9    69    1
    73    10    70    1
    74    11    71    1
    75    12    72    1
    76    13    73    1
    77    14    74    1
    78    15    75    1
    79    16    76    1
    80    17    77    1
    81    18    78    1
    82    19    79    1
    83    19    80    1
    84    20    81    1
    85    20    82    1
    86    21    83    1
    87    21    84    1
    88    22    85    1
    89    22    86    1
    90    23    87    1
    91    29    88    1
    92    30    89    1
    93    31    90    1
    94    32    91    1
    95    33    92    1
    96    40    93    1
    97    41    94    1
    98    42    95    1
    99    44    96    1
@<TRIPOS>SUBSTRUCTURE
     1 <0>         1 TEMP              0 ****  ****    0 ROOT

