
##########                                Name:        RIT_600_3NXU
##########                    Molecular_Weight:             718.941
##########                DOCK_Rotatable_Bonds:                  23
##########                       Formal_Charge:         0.000100225
##########                     HBond_Acceptors:                  13
##########                        HBond_Donors:                   4
##########                         Heavy_Atoms:                  50
##########                            HA_RMSDs:              10.054
##########                            HA_RMSDh:               5.039
##########                            HA_RMSDm:               3.787
##########                          Grid_Score:           70.502121
##########                     Grid_vdw_energy:           72.070602
##########                      Grid_es_energy:           -1.568478
##########           Internal_energy_repulsive:           60.166584

@<TRIPOS>MOLECULE
RIT_600_3NXU
 96 99 1 0 0
SMALL
USER_CHARGES


@<TRIPOS>ATOM
      1 C1         32.1819  -23.3712   24.9666 C.3     1  <0>        -0.0567
      2 C2         31.4331  -21.0132   25.1255 C.3     1  <0>        -0.0567
      3 C3         33.1712  -18.4791   28.0595 C.3     1  <0>        -0.0605
      4 C4         33.3754  -16.2754   29.5472 C.3     1  <0>        -0.0605
      5 C5         36.9642  -18.8505   23.5307 C.3     1  <0>         0.0050
      6 C6         32.3462  -11.9566   34.2448 C.ar    1  <0>        -0.0617
      7 C7         40.4250  -16.6936   28.0865 C.ar    1  <0>        -0.0617
      8 C8         32.2332  -13.1805   33.4215 C.ar    1  <0>        -0.0615
      9 C9         32.5996  -10.6093   33.5939 C.ar    1  <0>        -0.0615
     10 C10        39.8220  -16.4633   26.7355 C.ar    1  <0>        -0.0615
     11 C11        40.3599  -15.6484   29.1504 C.ar    1  <0>        -0.0615
     12 C12        32.3695  -13.0527   31.9435 C.ar    1  <0>        -0.0585
     13 C13        32.7400  -10.4744   32.1324 C.ar    1  <0>        -0.0585
     14 C14        39.0987  -15.1642   26.4093 C.ar    1  <0>        -0.0582
     15 C15        39.6626  -14.3673   28.8443 C.ar    1  <0>        -0.0582
     16 C16        39.0649  -13.3799   33.6368 C.2     1  <0>         0.0401
     17 C17        35.8328  -21.2330   27.6979 C.2     1  <0>         0.0002
     18 C18        38.7185  -15.6229   33.5304 C.2     1  <0>         0.0650
     19 C19        32.7694  -11.6588   29.8495 C.3     1  <0>        -0.0064
     20 C20        38.3041  -12.9133   27.2921 C.3     1  <0>         0.0105
     21 C21        37.1188  -20.0793   25.8604 C.3     1  <0>         0.0585
     22 C22        36.8956  -12.4973   33.4525 C.3     1  <0>         0.0912
     23 C23        36.0158  -12.0998   27.9440 C.2     1  <0>        -0.0367
     24 C24        32.6307  -11.6679   31.3067 C.ar    1  <0>        -0.0455
     25 C25        39.0266  -14.1492   27.4492 C.ar    1  <0>        -0.0419
     26 C26        37.8491  -13.3049   33.5544 C.2     1  <0>         0.0354
     27 C27        35.9112  -20.8065   26.4277 C.2     1  <0>         0.0660
     28 C28        33.8290  -21.6292   25.9754 C.2     1  <0>         0.0812
     29 C29        32.6210  -21.9400   24.9607 C.3     1  <0>         0.0021
     30 C30        33.7945  -17.0318   28.1961 C.3     1  <0>        -0.0197
     31 C31        34.2707  -12.0087   29.4935 C.3     1  <0>         0.0587
     32 C32        34.4728  -12.1427   28.0034 C.3     1  <0>         0.0937
     33 C33        35.2003  -16.5584   27.4015 C.3     1  <0>         0.1034
     34 C34        36.7318  -13.1978   27.7552 C.2     1  <0>         0.0134
     35 C35        36.0621  -15.6695   28.0947 C.2     1  <0>         0.2376
     36 C36        36.0250  -17.7254   25.5905 C.2     1  <0>         0.3029
     37 C37        35.8137  -12.0705   31.4982 C.2     1  <0>         0.3529
     38 N1         39.5561  -14.6149   33.6390 N.2     1  <0>        -0.2554
     39 N2         34.8742  -21.0310   25.6259 N.2     1  <0>        -0.2471
     40 N3         35.4782  -11.3865   30.3264 N.am    1  <0>        -0.2854
     41 N4         35.7194  -17.7121   27.0699 N.am    1  <0>        -0.2877
     42 N5         35.9090  -14.4228   27.5047 N.am    1  <0>        -0.2875
     43 N6         36.6734  -18.8581   24.9939 N.am    1  <0>        -0.2829
     44 O1         33.9870  -10.7792   27.4190 O.3     1  <0>        -0.3859
     45 O2         36.9575  -15.9654   28.8465 O.2     1  <0>        -0.2734
     46 O3         35.6894  -16.6382   24.8288 O.2     1  <0>        -0.2526
     47 O4         35.0373  -13.2105   31.8725 O.2     1  <0>        -0.2413
     48 O5         36.9461  -11.8623   32.1335 O.3     1  <0>        -0.2946
     49 S1         34.1895  -21.9645   27.6535 S.3     1  <0>        -0.0800
     50 S2         37.3055  -14.8910   33.4142 S.3     1  <0>        -0.0781
     51 H1         33.0585  -24.0247   24.8459 H       1  <0>         0.0236
     52 H2         31.6843  -23.5980   25.9211 H       1  <0>         0.0236
     53 H3         31.4800  -23.5427   24.1372 H       1  <0>         0.0236
     54 H4         31.7784  -19.9688   25.1183 H       1  <0>         0.0236
     55 H5         30.7271  -21.1714   24.2969 H       1  <0>         0.0236
     56 H6         30.9314  -21.2267   26.0808 H       1  <0>         0.0236
     57 H7         33.5012  -18.9332   27.1136 H       1  <0>         0.0233
     58 H8         33.5051  -19.1030   28.9017 H       1  <0>         0.0233
     59 H9         32.0735  -18.4077   28.0685 H       1  <0>         0.0233
     60 H10        33.8443  -15.2806   29.5716 H       1  <0>         0.0233
     61 H11        32.2814  -16.1659   29.5817 H       1  <0>         0.0233
     62 H12        33.7130  -16.8611   30.4149 H       1  <0>         0.0233
     63 H13        36.5818  -17.9203   23.0852 H       1  <0>         0.0429
     64 H14        38.0510  -18.9128   23.3727 H       1  <0>         0.0429
     65 H15        36.4743  -19.7130   23.0553 H       1  <0>         0.0429
     66 H16        32.2475  -12.0225   35.3183 H       1  <0>         0.0618
     67 H17        40.9157  -17.6328   28.2950 H       1  <0>         0.0618
     68 H18        32.0564  -14.1421   33.8802 H       1  <0>         0.0618
     69 H19        32.6789   -9.7296   34.2153 H       1  <0>         0.0618
     70 H20        39.9016  -17.2311   25.9802 H       1  <0>         0.0618
     71 H21        40.8076  -15.8166   30.1189 H       1  <0>         0.0618
     72 H22        32.2858  -13.9279   31.3163 H       1  <0>         0.0620
     73 H23        32.9204   -9.5089   31.6834 H       1  <0>         0.0620
     74 H24        38.6539  -15.0015   25.4387 H       1  <0>         0.0620
     75 H25        39.6008  -13.5925   29.5941 H       1  <0>         0.0620
     76 H26        39.6957  -12.5058   33.7032 H       1  <0>         0.0838
     77 H27        36.5448  -21.1589   28.5066 H       1  <0>         0.0712
     78 H28        38.9334  -16.6813   33.5220 H       1  <0>         0.0907
     79 H29        32.0954  -12.4058   29.4047 H       1  <0>         0.0332
     80 H30        32.5133  -10.6644   29.4554 H       1  <0>         0.0332
     81 H31        38.7501  -12.1298   27.9224 H       1  <0>         0.0374
     82 H32        38.3377  -12.5842   26.2431 H       1  <0>         0.0374
     83 H33        37.7446  -19.7209   26.6910 H       1  <0>         0.0530
     84 H34        37.6938  -20.7749   25.2316 H       1  <0>         0.0530
     85 H35        35.9427  -13.0348   33.5673 H       1  <0>         0.0622
     86 H36        36.9769  -11.7292   34.2356 H       1  <0>         0.0622
     87 H37        36.5222  -11.1528   28.0590 H       1  <0>         0.0613
     88 H38        33.0549  -21.7386   23.9702 H       1  <0>         0.0364
     89 H39        33.2636  -16.5538   27.3597 H       1  <0>         0.0318
     90 H40        34.3796  -13.0040   29.9489 H       1  <0>         0.0531
     91 H41        33.9936  -12.9992   27.5067 H       1  <0>         0.0657
     92 H42        34.9948  -15.9048   26.5409 H       1  <0>         0.0598
     93 H43        35.9627  -10.5631   30.0311 H       1  <0>         0.1514
     94 H44        35.8883  -18.4701   27.6998 H       1  <0>         0.1510
     95 H45        35.1679  -14.3330   26.8392 H       1  <0>         0.1546
     96 H46        33.1555  -10.5434   27.8133 H       1  <0>         0.2103
@<TRIPOS>BOND
     1     1    29    1
     2     2    29    1
     3     3    30    1
     4     4    30    1
     5     5    43    1
     6     6     8   ar
     7     6     9   ar
     8     7    10   ar
     9     7    11   ar
    10     8    12   ar
    11     9    13   ar
    12    10    14   ar
    13    11    15   ar
    14    12    24   ar
    15    13    24   ar
    16    14    25   ar
    17    15    25   ar
    18    16    26    2
    19    16    38    1
    20    17    27    2
    21    17    49    1
    22    18    38    2
    23    18    50    1
    24    19    24    1
    25    19    31    1
    26    20    25    1
    27    20    34    1
    28    21    27    1
    29    21    43    1
    30    22    26    1
    31    22    48    1
    32    23    32    1
    33    23    34    2
    34    26    50    1
    35    27    39    1
    36    28    29    1
    37    28    39    2
    38    28    49    1
    39    30    33    1
    40    31    32    1
    41    31    40    1
    42    32    44    1
    43    33    35    1
    44    33    41    1
    45    34    42    1
    46    35    42   am
    47    35    45    2
    48    36    41   am
    49    36    43   am
    50    36    46    2
    51    37    40   am
    52    37    47    2
    53    37    48    1
    54     1    51    1
    55     1    52    1
    56     1    53    1
    57     2    54    1
    58     2    55    1
    59     2    56    1
    60     3    57    1
    61     3    58    1
    62     3    59    1
    63     4    60    1
    64     4    61    1
    65     4    62    1
    66     5    63    1
    67     5    64    1
    68     5    65    1
    69     6    66    1
    70     7    67    1
    71     8    68    1
    72     9    69    1
    73    10    70    1
    74    11    71    1
    75    12    72    1
    76    13    73    1
    77    14    74    1
    78    15    75    1
    79    16    76    1
    80    17    77    1
    81    18    78    1
    82    19    79    1
    83    19    80    1
    84    20    81    1
    85    20    82    1
    86    21    83    1
    87    21    84    1
    88    22    85    1
    89    22    86    1
    90    23    87    1
    91    29    88    1
    92    30    89    1
    93    31    90    1
    94    32    91    1
    95    33    92    1
    96    40    93    1
    97    41    94    1
    98    42    95    1
    99    44    96    1
@<TRIPOS>SUBSTRUCTURE
     1 <0>         1 TEMP              0 ****  ****    0 ROOT

