
##########                                Name:        RIT_600_3NXU
##########                    Molecular_Weight:             718.941
##########                DOCK_Rotatable_Bonds:                  23
##########                       Formal_Charge:         0.000100225
##########                     HBond_Acceptors:                  13
##########                        HBond_Donors:                   4
##########                         Heavy_Atoms:                  50
##########                            HA_RMSDs:              10.253
##########                            HA_RMSDh:               5.412
##########                            HA_RMSDm:               3.943
##########                          Grid_Score:           11.636894
##########                     Grid_vdw_energy:           12.911089
##########                      Grid_es_energy:           -1.274195
##########           Internal_energy_repulsive:           91.083305

@<TRIPOS>MOLECULE
RIT_600_3NXU
 96 99 1 0 0
SMALL
USER_CHARGES


@<TRIPOS>ATOM
      1 C1         30.7055  -22.4860   22.5483 C.3     1  <0>        -0.0567
      2 C2         30.7063  -20.0069   22.5464 C.3     1  <0>        -0.0567
      3 C3         32.3387  -18.6241   26.3550 C.3     1  <0>        -0.0605
      4 C4         32.5365  -16.3756   27.7749 C.3     1  <0>        -0.0605
      5 C5         36.9346  -19.1494   22.3562 C.3     1  <0>         0.0050
      6 C6         32.0848  -15.2826   33.8795 C.ar    1  <0>        -0.0617
      7 C7         40.2048  -17.4215   27.8205 C.ar    1  <0>        -0.0617
      8 C8         32.4621  -16.0501   32.6725 C.ar    1  <0>        -0.0615
      9 C9         31.8024  -13.7942   33.7906 C.ar    1  <0>        -0.0615
     10 C10        39.4150  -17.2461   26.5606 C.ar    1  <0>        -0.0615
     11 C11        40.2801  -16.3365   28.8431 C.ar    1  <0>        -0.0615
     12 C12        32.5515  -15.3256   31.3738 C.ar    1  <0>        -0.0585
     13 C13        31.8926  -13.0684   32.5103 C.ar    1  <0>        -0.0585
     14 C14        38.6399  -15.9639   26.2916 C.ar    1  <0>        -0.0582
     15 C15        39.5337  -15.0714   28.5909 C.ar    1  <0>        -0.0582
     16 C16        39.6962  -13.3188   32.7279 C.2     1  <0>         0.0401
     17 C17        34.2940  -21.3809   25.9043 C.2     1  <0>         0.0002
     18 C18        40.5556  -15.2302   31.8500 C.2     1  <0>         0.0650
     19 C19        32.3989  -13.1917   29.9916 C.3     1  <0>        -0.0064
     20 C20        37.9554  -13.6844   27.1930 C.3     1  <0>         0.0105
     21 C21        36.1588  -20.6885   24.3538 C.3     1  <0>         0.0585
     22 C22        37.3954  -13.7775   32.8508 C.3     1  <0>         0.0912
     23 C23        35.6922  -13.0476   28.0850 C.2     1  <0>        -0.0367
     24 C24        32.2615  -13.8079   31.3123 C.ar    1  <0>        -0.0455
     25 C25        38.7051  -14.9100   27.2925 C.ar    1  <0>        -0.0419
     26 C26        38.6292  -13.9094   32.6711 C.2     1  <0>         0.0354
     27 C27        34.7150  -21.0340   24.6780 C.2     1  <0>         0.0660
     28 C28        32.6029  -21.2616   23.8391 C.2     1  <0>         0.0812
     29 C29        31.5590  -21.2580   22.6160 C.3     1  <0>         0.0021
     30 C30        33.1194  -17.2661   26.5748 C.3     1  <0>        -0.0197
     31 C31        33.9366  -13.1524   29.6218 C.3     1  <0>         0.0587
     32 C32        34.1481  -13.0482   28.1307 C.3     1  <0>         0.0937
     33 C33        34.7144  -17.0349   26.0908 C.3     1  <0>         0.1034
     34 C34        36.3688  -14.0462   27.5384 C.2     1  <0>         0.0134
     35 C35        35.5978  -16.4612   27.0416 C.2     1  <0>         0.2376
     36 C36        35.7317  -18.1142   24.3240 C.2     1  <0>         0.3029
     37 C37        35.7960  -13.2089   31.3374 C.2     1  <0>         0.3529
     38 N1         40.7486  -14.0114   32.3046 N.2     1  <0>        -0.2554
     39 N2         33.8184  -20.9880   23.6970 N.2     1  <0>        -0.2471
     40 N3         34.9844  -12.3891   30.5483 N.am    1  <0>        -0.2854
     41 N4         35.0370  -18.2271   25.6607 N.am    1  <0>        -0.2877
     42 N5         35.5036  -15.0844   26.8949 N.am    1  <0>        -0.2875
     43 N6         36.2537  -19.2838   23.6767 N.am    1  <0>        -0.2829
     44 O1         33.7120  -11.5923   27.7748 O.3     1  <0>        -0.3859
     45 O2         36.4677  -17.0258   27.6572 O.2     1  <0>        -0.2734
     46 O3         35.8704  -16.8814   23.7447 O.2     1  <0>        -0.2526
     47 O4         35.5933  -14.6229   31.2906 O.2     1  <0>        -0.2413
     48 O5         36.8838  -12.7629   31.9265 O.3     1  <0>        -0.2946
     49 S1         32.5479  -21.6294   25.5479 S.3     1  <0>        -0.0800
     50 S2         38.9760  -15.4075   31.9880 S.3     1  <0>        -0.0781
     51 H1         31.3440  -23.3802   22.6004 H       1  <0>         0.0236
     52 H2         30.0005  -22.4894   23.3928 H       1  <0>         0.0236
     53 H3         30.1445  -22.4908   21.6021 H       1  <0>         0.0236
     54 H4         31.3529  -19.1185   22.5978 H       1  <0>         0.0236
     55 H5         30.1454  -19.9978   21.6001 H       1  <0>         0.0236
     56 H6         30.0014  -19.9963   23.3908 H       1  <0>         0.0236
     57 H7         32.7930  -19.1778   25.5201 H       1  <0>         0.0233
     58 H8         32.3941  -19.2311   27.2707 H       1  <0>         0.0233
     59 H9         31.2857  -18.4078   26.1214 H       1  <0>         0.0233
     60 H10        33.1269  -15.4520   27.8671 H       1  <0>         0.0233
     61 H11        31.4871  -16.1204   27.5658 H       1  <0>         0.0233
     62 H12        32.5955  -16.9437   28.7150 H       1  <0>         0.0233
     63 H13        36.9068  -18.0980   22.0341 H       1  <0>         0.0429
     64 H14        37.9807  -19.4770   22.4482 H       1  <0>         0.0429
     65 H15        36.4185  -19.7743   21.6125 H       1  <0>         0.0429
     66 H16        32.0097  -15.7857   34.8322 H       1  <0>         0.0618
     67 H17        40.7294  -18.3497   27.9926 H       1  <0>         0.0618
     68 H18        32.6675  -17.1088   32.7313 H       1  <0>         0.0618
     69 H19        31.5292  -13.2544   34.6852 H       1  <0>         0.0618
     70 H20        39.3949  -18.0421   25.8310 H       1  <0>         0.0618
     71 H21        40.8615  -16.4652   29.7441 H       1  <0>         0.0618
     72 H22        32.8189  -15.8608   30.4747 H       1  <0>         0.0620
     73 H23        31.6889  -12.0089   32.4624 H       1  <0>         0.0620
     74 H24        38.0611  -15.8407   25.3882 H       1  <0>         0.0620
     75 H25        39.5706  -14.2685   29.3123 H       1  <0>         0.0620
     76 H26        39.7789  -12.3067   33.0955 H       1  <0>         0.0838
     77 H27        34.8409  -21.4811   26.8302 H       1  <0>         0.0712
     78 H28        41.2840  -15.9348   31.4767 H       1  <0>         0.0907
     79 H29        31.8491  -13.7823   29.2440 H       1  <0>         0.0332
     80 H30        31.9925  -12.1698   30.0114 H       1  <0>         0.0332
     81 H31        38.3409  -12.9439   27.9093 H       1  <0>         0.0374
     82 H32        38.0382  -13.2697   26.1775 H       1  <0>         0.0374
     83 H33        36.7432  -20.6780   25.2856 H       1  <0>         0.0530
     84 H34        36.5634  -21.4462   23.6667 H       1  <0>         0.0530
     85 H35        36.8903  -14.7365   32.6629 H       1  <0>         0.0622
     86 H36        37.2049  -13.4626   33.8873 H       1  <0>         0.0622
     87 H37        36.2324  -12.2138   28.5087 H       1  <0>         0.0613
     88 H38        32.2031  -21.2618   21.7243 H       1  <0>         0.0364
     89 H39        32.8515  -16.7770   25.6268 H       1  <0>         0.0318
     90 H40        34.2685  -14.1484   29.9502 H       1  <0>         0.0531
     91 H41        33.6463  -13.7959   27.4989 H       1  <0>         0.0657
     92 H42        34.8102  -16.2504   25.3257 H       1  <0>         0.0598
     93 H43        35.0564  -11.3918   30.5642 H       1  <0>         0.1514
     94 H44        34.8520  -19.0832   26.1432 H       1  <0>         0.1510
     95 H45        34.7784  -14.7492   26.2934 H       1  <0>         0.1546
     96 H46        32.7640  -11.5324   27.7910 H       1  <0>         0.2103
@<TRIPOS>BOND
     1     1    29    1
     2     2    29    1
     3     3    30    1
     4     4    30    1
     5     5    43    1
     6     6     8   ar
     7     6     9   ar
     8     7    10   ar
     9     7    11   ar
    10     8    12   ar
    11     9    13   ar
    12    10    14   ar
    13    11    15   ar
    14    12    24   ar
    15    13    24   ar
    16    14    25   ar
    17    15    25   ar
    18    16    26    2
    19    16    38    1
    20    17    27    2
    21    17    49    1
    22    18    38    2
    23    18    50    1
    24    19    24    1
    25    19    31    1
    26    20    25    1
    27    20    34    1
    28    21    27    1
    29    21    43    1
    30    22    26    1
    31    22    48    1
    32    23    32    1
    33    23    34    2
    34    26    50    1
    35    27    39    1
    36    28    29    1
    37    28    39    2
    38    28    49    1
    39    30    33    1
    40    31    32    1
    41    31    40    1
    42    32    44    1
    43    33    35    1
    44    33    41    1
    45    34    42    1
    46    35    42   am
    47    35    45    2
    48    36    41   am
    49    36    43   am
    50    36    46    2
    51    37    40   am
    52    37    47    2
    53    37    48    1
    54     1    51    1
    55     1    52    1
    56     1    53    1
    57     2    54    1
    58     2    55    1
    59     2    56    1
    60     3    57    1
    61     3    58    1
    62     3    59    1
    63     4    60    1
    64     4    61    1
    65     4    62    1
    66     5    63    1
    67     5    64    1
    68     5    65    1
    69     6    66    1
    70     7    67    1
    71     8    68    1
    72     9    69    1
    73    10    70    1
    74    11    71    1
    75    12    72    1
    76    13    73    1
    77    14    74    1
    78    15    75    1
    79    16    76    1
    80    17    77    1
    81    18    78    1
    82    19    79    1
    83    19    80    1
    84    20    81    1
    85    20    82    1
    86    21    83    1
    87    21    84    1
    88    22    85    1
    89    22    86    1
    90    23    87    1
    91    29    88    1
    92    30    89    1
    93    31    90    1
    94    32    91    1
    95    33    92    1
    96    40    93    1
    97    41    94    1
    98    42    95    1
    99    44    96    1
@<TRIPOS>SUBSTRUCTURE
     1 <0>         1 TEMP              0 ****  ****    0 ROOT

