
##########                                Name:        RIT_600_3NXU
##########                    Molecular_Weight:             718.941
##########                DOCK_Rotatable_Bonds:                  23
##########                       Formal_Charge:         0.000100225
##########                     HBond_Acceptors:                  13
##########                        HBond_Donors:                   4
##########                         Heavy_Atoms:                  50
##########                            HA_RMSDs:               9.024
##########                            HA_RMSDh:               5.920
##########                            HA_RMSDm:               4.339
##########                          Grid_Score:          145.767166
##########                     Grid_vdw_energy:          148.813934
##########                      Grid_es_energy:           -3.046763
##########           Internal_energy_repulsive:           77.761108

@<TRIPOS>MOLECULE
RIT_600_3NXU
 96 99 1 0 0
SMALL
USER_CHARGES


@<TRIPOS>ATOM
      1 C1         30.1126  -21.5887   21.2228 C.3     1  <0>        -0.0567
      2 C2         31.2262  -21.8302   23.4245 C.3     1  <0>        -0.0567
      3 C3         34.2077  -19.6466   24.3456 C.3     1  <0>        -0.0605
      4 C4         35.8254  -19.3556   26.4455 C.3     1  <0>        -0.0605
      5 C5         29.2714  -15.9915   24.8230 C.3     1  <0>         0.0050
      6 C6         42.0705  -18.5603   28.6081 C.ar    1  <0>        -0.0617
      7 C7         32.7151  -12.4721   27.0277 C.ar    1  <0>        -0.0617
      8 C8         40.9502  -18.4142   27.6531 C.ar    1  <0>        -0.0615
      9 C9         41.8278  -19.0993   30.0058 C.ar    1  <0>        -0.0615
     10 C10        31.8463  -13.6574   27.3143 C.ar    1  <0>        -0.0615
     11 C11        33.8937  -12.1518   27.8861 C.ar    1  <0>        -0.0615
     12 C12        39.5858  -18.8138   28.0982 C.ar    1  <0>        -0.0585
     13 C13        40.4802  -19.4931   30.4560 C.ar    1  <0>        -0.0585
     14 C14        32.1512  -14.5919   28.4766 C.ar    1  <0>        -0.0582
     15 C15        34.2010  -13.0521   29.0333 C.ar    1  <0>        -0.0582
     16 C16        38.4679  -12.1392   31.3383 C.2     1  <0>         0.0401
     17 C17        32.7903  -17.3387   21.5805 C.2     1  <0>         0.0002
     18 C18        37.1699  -11.2129   29.7197 C.2     1  <0>         0.0650
     19 C19        37.9844  -19.6995   29.8698 C.3     1  <0>        -0.0064
     20 C20        33.7446  -15.1332   30.3859 C.3     1  <0>         0.0105
     21 C21        31.2903  -16.0248   23.1246 C.3     1  <0>         0.0585
     22 C22        39.2811  -14.0915   30.3156 C.3     1  <0>         0.0912
     23 C23        35.2425  -17.1463   30.5515 C.2     1  <0>        -0.0367
     24 C24        39.3663  -19.3571   29.5292 C.ar    1  <0>        -0.0455
     25 C25        33.3056  -14.2856   29.3076 C.ar    1  <0>        -0.0419
     26 C26        38.6996  -12.9963   30.5003 C.2     1  <0>         0.0354
     27 C27        31.7564  -17.2962   22.4353 C.2     1  <0>         0.0660
     28 C28        31.3933  -19.5364   22.1783 C.2     1  <0>         0.0812
     29 C29        30.5477  -20.8739   22.4641 C.3     1  <0>         0.0021
     30 C30        34.3868  -19.0564   25.8021 C.3     1  <0>        -0.0197
     31 C31        37.2033  -18.3579   30.1746 C.3     1  <0>         0.0587
     32 C32        35.7109  -18.5808   30.2216 C.3     1  <0>         0.0937
     33 C33        33.4908  -17.7555   26.3826 C.3     1  <0>         0.1034
     34 C34        34.5024  -16.4478   29.7039 C.2     1  <0>         0.0134
     35 C35        34.1842  -16.7953   27.1639 C.2     1  <0>         0.2376
     36 C36        31.4966  -16.9374   25.5608 C.2     1  <0>         0.3029
     37 C37        38.4444  -16.1898   30.5782 C.2     1  <0>         0.3529
     38 N1         37.6589  -11.1629   30.9394 N.2     1  <0>        -0.2554
     39 N2         31.1093  -18.4289   22.6933 N.2     1  <0>        -0.2471
     40 N3         37.7967  -17.2727   31.1792 N.am    1  <0>        -0.2854
     41 N4         32.9361  -17.3051   25.2872 N.am    1  <0>        -0.2877
     42 N5         34.0923  -17.2125   28.4843 N.am    1  <0>        -0.2875
     43 N6         30.6910  -16.3452   24.5314 N.am    1  <0>        -0.2829
     44 O1         35.4808  -19.4126   31.5223 O.3     1  <0>        -0.3859
     45 O2         34.5378  -15.6957   26.8169 O.2     1  <0>        -0.2734
     46 O3         30.9743  -17.1624   26.8063 O.2     1  <0>        -0.2526
     47 O4         38.5645  -16.1675   29.1542 O.2     1  <0>        -0.2413
     48 O5         38.7282  -15.0873   31.2365 O.3     1  <0>        -0.2946
     49 S1         32.7629  -19.0938   21.1850 S.3     1  <0>        -0.0800
     50 S2         37.7927  -12.5668   29.1497 S.3     1  <0>        -0.0781
     51 H1         29.6236  -20.8769   20.5414 H       1  <0>         0.0236
     52 H2         30.9903  -22.0279   20.7259 H       1  <0>         0.0236
     53 H3         29.4041  -22.3871   21.4888 H       1  <0>         0.0236
     54 H4         31.5370  -21.2846   24.3277 H       1  <0>         0.0236
     55 H5         30.5239  -22.6298   23.7029 H       1  <0>         0.0236
     56 H6         32.1101  -22.2705   22.9400 H       1  <0>         0.0236
     57 H7         33.2023  -19.4029   23.9717 H       1  <0>         0.0233
     58 H8         34.9635  -19.2084   23.6771 H       1  <0>         0.0233
     59 H9         34.3331  -20.7390   24.3748 H       1  <0>         0.0233
     60 H10        35.8754  -18.9170   27.4530 H       1  <0>         0.0233
     61 H11        35.9785  -20.4430   26.5111 H       1  <0>         0.0233
     62 H12        36.6089  -18.9123   25.8134 H       1  <0>         0.0233
     63 H13        29.0233  -16.2878   25.8529 H       1  <0>         0.0429
     64 H14        29.1336  -14.9059   24.7106 H       1  <0>         0.0429
     65 H15        28.6104  -16.5198   24.1203 H       1  <0>         0.0429
     66 H16        43.0697  -18.2809   28.3081 H       1  <0>         0.0618
     67 H17        32.4850  -11.8374   26.1847 H       1  <0>         0.0618
     68 H18        41.1173  -18.0278   26.6585 H       1  <0>         0.0618
     69 H19        42.6610  -19.1967   30.6860 H       1  <0>         0.0618
     70 H20        30.9896  -13.8524   26.6864 H       1  <0>         0.0618
     71 H21        34.5090  -11.2883   27.6806 H       1  <0>         0.0618
     72 H22        38.7494  -18.7239   27.4209 H       1  <0>         0.0620
     73 H23        40.3227  -19.8750   31.4538 H       1  <0>         0.0620
     74 H24        31.5316  -15.4533   28.6775 H       1  <0>         0.0620
     75 H25        35.0466  -12.8447   29.6723 H       1  <0>         0.0620
     76 H26        38.8898  -12.1719   32.3319 H       1  <0>         0.0838
     77 H27        33.4445  -16.5527   21.2331 H       1  <0>         0.0712
     78 H28        36.5116  -10.5127   29.2270 H       1  <0>         0.0907
     79 H29        37.5106  -20.2253   29.0276 H       1  <0>         0.0332
     80 H30        37.9677  -20.3517   30.7553 H       1  <0>         0.0332
     81 H31        34.4430  -14.5879   31.0377 H       1  <0>         0.0374
     82 H32        32.8833  -15.4606   30.9867 H       1  <0>         0.0374
     83 H33        32.1481  -15.3471   23.2458 H       1  <0>         0.0530
     84 H34        30.5178  -15.5440   22.5065 H       1  <0>         0.0530
     85 H35        39.1256  -14.4217   29.2779 H       1  <0>         0.0622
     86 H36        40.3586  -13.9736   30.5025 H       1  <0>         0.0622
     87 H37        35.5249  -16.7027   31.4949 H       1  <0>         0.0613
     88 H38        29.6383  -20.5054   22.9612 H       1  <0>         0.0364
     89 H39        33.6460  -19.6854   26.3174 H       1  <0>         0.0318
     90 H40        37.4363  -17.7587   29.2820 H       1  <0>         0.0531
     91 H41        35.2456  -19.0511   29.3428 H       1  <0>         0.0657
     92 H42        32.7645  -18.0574   27.1515 H       1  <0>         0.0598
     93 H43        37.7117  -17.3605   32.1718 H       1  <0>         0.1514
     94 H44        33.3950  -17.2174   24.4031 H       1  <0>         0.1510
     95 H45        33.7100  -18.1238   28.6378 H       1  <0>         0.1546
     96 H46        35.8897  -20.2651   31.4300 H       1  <0>         0.2103
@<TRIPOS>BOND
     1     1    29    1
     2     2    29    1
     3     3    30    1
     4     4    30    1
     5     5    43    1
     6     6     8   ar
     7     6     9   ar
     8     7    10   ar
     9     7    11   ar
    10     8    12   ar
    11     9    13   ar
    12    10    14   ar
    13    11    15   ar
    14    12    24   ar
    15    13    24   ar
    16    14    25   ar
    17    15    25   ar
    18    16    26    2
    19    16    38    1
    20    17    27    2
    21    17    49    1
    22    18    38    2
    23    18    50    1
    24    19    24    1
    25    19    31    1
    26    20    25    1
    27    20    34    1
    28    21    27    1
    29    21    43    1
    30    22    26    1
    31    22    48    1
    32    23    32    1
    33    23    34    2
    34    26    50    1
    35    27    39    1
    36    28    29    1
    37    28    39    2
    38    28    49    1
    39    30    33    1
    40    31    32    1
    41    31    40    1
    42    32    44    1
    43    33    35    1
    44    33    41    1
    45    34    42    1
    46    35    42   am
    47    35    45    2
    48    36    41   am
    49    36    43   am
    50    36    46    2
    51    37    40   am
    52    37    47    2
    53    37    48    1
    54     1    51    1
    55     1    52    1
    56     1    53    1
    57     2    54    1
    58     2    55    1
    59     2    56    1
    60     3    57    1
    61     3    58    1
    62     3    59    1
    63     4    60    1
    64     4    61    1
    65     4    62    1
    66     5    63    1
    67     5    64    1
    68     5    65    1
    69     6    66    1
    70     7    67    1
    71     8    68    1
    72     9    69    1
    73    10    70    1
    74    11    71    1
    75    12    72    1
    76    13    73    1
    77    14    74    1
    78    15    75    1
    79    16    76    1
    80    17    77    1
    81    18    78    1
    82    19    79    1
    83    19    80    1
    84    20    81    1
    85    20    82    1
    86    21    83    1
    87    21    84    1
    88    22    85    1
    89    22    86    1
    90    23    87    1
    91    29    88    1
    92    30    89    1
    93    31    90    1
    94    32    91    1
    95    33    92    1
    96    40    93    1
    97    41    94    1
    98    42    95    1
    99    44    96    1
@<TRIPOS>SUBSTRUCTURE
     1 <0>         1 TEMP              0 ****  ****    0 ROOT

