
##########                                Name:        DNC_302_3BWM
##########                    Molecular_Weight:             200.108
##########                DOCK_Rotatable_Bonds:                   2
##########                       Formal_Charge:         0.000300005
##########                     HBond_Acceptors:                   8
##########                        HBond_Donors:                   2
##########                         Heavy_Atoms:                  14
##########                            HA_RMSDs:               6.445
##########                            HA_RMSDh:               6.287
##########                            HA_RMSDm:               5.388
##########                          Grid_Score:          -33.782951
##########                     Grid_vdw_energy:          -32.628376
##########                      Grid_es_energy:           -1.154575
##########           Internal_energy_repulsive:            8.284001

@<TRIPOS>MOLECULE
DNC_302_3BWM
 18 18 1 0 0
SMALL
USER_CHARGES


@<TRIPOS>ATOM
      1 C1         -4.6751  -10.3996  -12.0138 C.ar    1  <0>        -0.0030
      2 C2         -3.0831  -11.9938  -12.9507 C.ar    1  <0>        -0.0013
      3 C3         -3.5368  -11.1977  -11.8962 C.ar    1  <0>         0.1217
      4 C4         -5.4038  -10.3557  -13.1940 C.ar    1  <0>         0.1511
      5 C5         -3.7469  -12.0132  -14.1652 C.ar    1  <0>         0.1063
      6 C6         -4.9529  -11.1770  -14.3340 C.ar    1  <0>         0.1307
      7 N1         -2.8519  -11.2166  -10.6756 N.pl3   1  <0>         0.0926
      8 N2         -6.5509   -9.5594  -13.2966 N.pl3   1  <0>         0.0951
      9 O1         -3.2978  -12.7809  -15.1991 O.3     1  <0>        -0.3572
     10 O2         -5.6231  -11.1865  -15.5151 O.3     1  <0>        -0.3557
     11 O3         -3.2656  -10.5148   -9.7729 O.2     1  <0>        -0.1369
     12 O4         -1.8661  -11.9411  -10.4975 O.2     1  <0>        -0.1369
     13 O5         -7.0212   -9.2644  -14.3825 O.2     1  <0>        -0.1368
     14 O6         -7.1034   -9.1614  -12.2877 O.2     1  <0>        -0.1368
     15 H1         -4.9951   -9.8050  -11.1709 H       1  <0>         0.0660
     16 H2         -2.2015  -12.6030  -12.8163 H       1  <0>         0.0665
     17 H3         -3.8019  -12.5868  -15.9805 H       1  <0>         0.2174
     18 H4         -6.5573  -11.2338  -15.3493 H       1  <0>         0.2175
@<TRIPOS>BOND
     1     1     3   ar
     2     1     4   ar
     3     2     3   ar
     4     2     5   ar
     5     3     7    1
     6     4     6   ar
     7     4     8    1
     8     5     6   ar
     9     5     9    1
    10     6    10    1
    11     7    11    2
    12     7    12    2
    13     8    13    2
    14     8    14    2
    15     1    15    1
    16     2    16    1
    17     9    17    1
    18    10    18    1
@<TRIPOS>SUBSTRUCTURE
     1 <0>         1 TEMP              0 ****  ****    0 ROOT

