
##########                                Name:        DNC_302_3BWM
##########                    Molecular_Weight:             200.108
##########                DOCK_Rotatable_Bonds:                   2
##########                       Formal_Charge:         0.000300005
##########                     HBond_Acceptors:                   8
##########                        HBond_Donors:                   2
##########                         Heavy_Atoms:                  14
##########                            HA_RMSDs:               6.869
##########                            HA_RMSDh:               6.190
##########                            HA_RMSDm:               5.356
##########                          Grid_Score:          -32.995510
##########                     Grid_vdw_energy:          -31.499250
##########                      Grid_es_energy:           -1.496261
##########           Internal_energy_repulsive:            8.283996

@<TRIPOS>MOLECULE
DNC_302_3BWM
 18 18 1 0 0
SMALL
USER_CHARGES


@<TRIPOS>ATOM
      1 C1         -5.0975  -10.6216  -12.1819 C.ar    1  <0>        -0.0030
      2 C2         -5.1910  -10.8856  -14.6058 C.ar    1  <0>        -0.0013
      3 C3         -5.7219  -10.3977  -13.4093 C.ar    1  <0>         0.1217
      4 C4         -3.9201  -11.3510  -12.0966 C.ar    1  <0>         0.1511
      5 C5         -4.0201  -11.6239  -14.6167 C.ar    1  <0>         0.1063
      6 C6         -3.3309  -11.8898  -13.3376 C.ar    1  <0>         0.1307
      7 N1         -6.8979   -9.6389  -13.4371 N.pl3   1  <0>         0.0926
      8 N2         -3.2965  -11.5599  -10.8604 N.pl3   1  <0>         0.0951
      9 O1         -3.5074  -12.1107  -15.7830 O.3     1  <0>        -0.3572
     10 O2         -2.1771  -12.6061  -13.3266 O.3     1  <0>        -0.3557
     11 O3         -7.3408   -9.2257  -12.3828 O.2     1  <0>        -0.1369
     12 O4         -7.4681   -9.3672  -14.4998 O.2     1  <0>        -0.1369
     13 O5         -2.4575  -12.4328  -10.7144 O.2     1  <0>        -0.1368
     14 O6         -3.5815  -10.8522   -9.9118 O.2     1  <0>        -0.1368
     15 H1         -5.5386  -10.2198  -11.2816 H       1  <0>         0.0660
     16 H2         -5.7016  -10.6839  -15.5359 H       1  <0>         0.0665
     17 H3         -2.9085  -12.8231  -15.5931 H       1  <0>         0.2174
     18 H4         -2.1100  -13.0867  -12.5100 H       1  <0>         0.2175
@<TRIPOS>BOND
     1     1     3   ar
     2     1     4   ar
     3     2     3   ar
     4     2     5   ar
     5     3     7    1
     6     4     6   ar
     7     4     8    1
     8     5     6   ar
     9     5     9    1
    10     6    10    1
    11     7    11    2
    12     7    12    2
    13     8    13    2
    14     8    14    2
    15     1    15    1
    16     2    16    1
    17     9    17    1
    18    10    18    1
@<TRIPOS>SUBSTRUCTURE
     1 <0>         1 TEMP              0 ****  ****    0 ROOT

