
##########                                Name:        DNC_302_3BWM
##########                    Molecular_Weight:             200.108
##########                DOCK_Rotatable_Bonds:                   2
##########                       Formal_Charge:         0.000300005
##########                     HBond_Acceptors:                   8
##########                        HBond_Donors:                   2
##########                         Heavy_Atoms:                  14
##########                            HA_RMSDs:               6.566
##########                            HA_RMSDh:               6.410
##########                            HA_RMSDm:               5.513
##########                          Grid_Score:          -35.513802
##########                     Grid_vdw_energy:          -33.258251
##########                      Grid_es_energy:           -2.255551
##########           Internal_energy_repulsive:            8.283963

@<TRIPOS>MOLECULE
DNC_302_3BWM
 18 18 1 0 0
SMALL
USER_CHARGES


@<TRIPOS>ATOM
      1 C1         -4.4648  -10.4820  -11.8672 C.ar    1  <0>        -0.0030
      2 C2         -2.7730  -11.9174  -12.8827 C.ar    1  <0>        -0.0013
      3 C3         -3.2589  -11.1804  -11.7999 C.ar    1  <0>         0.1217
      4 C4         -5.2326  -10.4826  -13.0231 C.ar    1  <0>         0.1511
      5 C5         -3.4719  -11.9748  -14.0761 C.ar    1  <0>         0.1063
      6 C6         -4.7502  -11.2435  -14.1917 C.ar    1  <0>         0.1307
      7 N1         -2.5354  -11.1594  -10.6018 N.pl3   1  <0>         0.0926
      8 N2         -6.4467   -9.7870  -13.0752 N.pl3   1  <0>         0.0951
      9 O1         -2.9924  -12.6843  -15.1376 O.3     1  <0>        -0.3572
     10 O2         -5.4552  -11.2922  -15.3514 O.3     1  <0>        -0.3557
     11 O3         -2.9784  -10.5104   -9.6737 O.2     1  <0>        -0.1369
     12 O4         -1.4858  -11.7986  -10.4679 O.2     1  <0>        -0.1369
     13 O5         -6.9758   -9.5165  -14.1402 O.2     1  <0>        -0.1368
     14 O6         -6.9982   -9.4544  -12.0422 O.2     1  <0>        -0.1368
     15 H1         -4.8071   -9.9308  -11.0037 H       1  <0>         0.0660
     16 H2         -1.8384  -12.4501  -12.7871 H       1  <0>         0.0665
     17 H3         -3.4418  -13.5196  -15.1896 H       1  <0>         0.2174
     18 H4         -6.3044  -11.6862  -15.1899 H       1  <0>         0.2175
@<TRIPOS>BOND
     1     1     3   ar
     2     1     4   ar
     3     2     3   ar
     4     2     5   ar
     5     3     7    1
     6     4     6   ar
     7     4     8    1
     8     5     6   ar
     9     5     9    1
    10     6    10    1
    11     7    11    2
    12     7    12    2
    13     8    13    2
    14     8    14    2
    15     1    15    1
    16     2    16    1
    17     9    17    1
    18    10    18    1
@<TRIPOS>SUBSTRUCTURE
     1 <0>         1 TEMP              0 ****  ****    0 ROOT

