
##########                                Name:        DNC_302_3BWM
##########                    Molecular_Weight:             200.108
##########                DOCK_Rotatable_Bonds:                   2
##########                       Formal_Charge:         0.000300005
##########                     HBond_Acceptors:                   8
##########                        HBond_Donors:                   2
##########                         Heavy_Atoms:                  14
##########                            HA_RMSDs:               6.778
##########                            HA_RMSDh:               6.120
##########                            HA_RMSDm:               5.394
##########                          Grid_Score:          -33.020897
##########                     Grid_vdw_energy:          -30.429739
##########                      Grid_es_energy:           -2.591158
##########           Internal_energy_repulsive:            8.283994

@<TRIPOS>MOLECULE
DNC_302_3BWM
 18 18 1 0 0
SMALL
USER_CHARGES


@<TRIPOS>ATOM
      1 C1         -4.5080  -10.5841  -12.1941 C.ar    1  <0>        -0.0030
      2 C2         -5.1706  -11.1104  -14.4827 C.ar    1  <0>        -0.0013
      3 C3         -5.3939  -10.4629  -13.2651 C.ar    1  <0>         0.1217
      4 C4         -3.3652  -11.3653  -12.2910 C.ar    1  <0>         0.1511
      5 C5         -4.0568  -11.9107  -14.6701 C.ar    1  <0>         0.1063
      6 C6         -3.0971  -12.0714  -13.5587 C.ar    1  <0>         0.1307
      7 N1         -6.5210   -9.6464  -13.1166 N.pl3   1  <0>         0.0926
      8 N2         -2.4776  -11.4704  -11.2132 N.pl3   1  <0>         0.0951
      9 O1         -3.8442  -12.5526  -15.8544 O.3     1  <0>        -0.3572
     10 O2         -1.9942  -12.8465  -13.7237 O.3     1  <0>        -0.3557
     11 O3         -6.6941   -9.0939  -12.0473 O.2     1  <0>        -0.1369
     12 O4         -7.3145   -9.4626  -14.0465 O.2     1  <0>        -0.1369
     13 O5         -1.6539  -12.3680  -11.1571 O.2     1  <0>        -0.1368
     14 O6         -2.5130  -10.6466  -10.3177 O.2     1  <0>        -0.1368
     15 H1         -4.7154  -10.0602  -11.2727 H       1  <0>         0.0660
     16 H2         -5.8774  -10.9847  -15.2897 H       1  <0>         0.0665
     17 H3         -4.4714  -13.2597  -15.9489 H       1  <0>         0.2174
     18 H4         -1.8431  -13.3549  -12.9356 H       1  <0>         0.2175
@<TRIPOS>BOND
     1     1     3   ar
     2     1     4   ar
     3     2     3   ar
     4     2     5   ar
     5     3     7    1
     6     4     6   ar
     7     4     8    1
     8     5     6   ar
     9     5     9    1
    10     6    10    1
    11     7    11    2
    12     7    12    2
    13     8    13    2
    14     8    14    2
    15     1    15    1
    16     2    16    1
    17     9    17    1
    18    10    18    1
@<TRIPOS>SUBSTRUCTURE
     1 <0>         1 TEMP              0 ****  ****    0 ROOT

