
##########                                Name:        DNC_302_3BWM
##########                    Molecular_Weight:             200.108
##########                DOCK_Rotatable_Bonds:                   2
##########                       Formal_Charge:         0.000300005
##########                     HBond_Acceptors:                   8
##########                        HBond_Donors:                   2
##########                         Heavy_Atoms:                  14
##########                            HA_RMSDs:               7.024
##########                            HA_RMSDh:               6.607
##########                            HA_RMSDm:               5.253
##########                          Grid_Score:          -33.217308
##########                     Grid_vdw_energy:          -32.637123
##########                      Grid_es_energy:           -0.580183
##########           Internal_energy_repulsive:            8.283973

@<TRIPOS>MOLECULE
DNC_302_3BWM
 18 18 1 0 0
SMALL
USER_CHARGES


@<TRIPOS>ATOM
      1 C1         -8.2407   -7.8302  -15.2876 C.ar    1  <0>        -0.0030
      2 C2         -6.0857   -8.8658  -15.7747 C.ar    1  <0>        -0.0013
      3 C3         -7.1041   -7.9615  -16.0859 C.ar    1  <0>         0.1217
      4 C4         -8.4127   -8.6039  -14.1485 C.ar    1  <0>         0.1511
      5 C5         -6.1720   -9.6788  -14.6577 C.ar    1  <0>         0.1063
      6 C6         -7.3626   -9.5764  -13.7893 C.ar    1  <0>         0.1307
      7 N1         -6.9754   -7.1415  -17.2130 N.pl3   1  <0>         0.0926
      8 N2         -9.5525   -8.4555  -13.3489 N.pl3   1  <0>         0.0951
      9 O1         -5.1838  -10.5703  -14.3597 O.3     1  <0>        -0.3572
     10 O2         -7.4639  -10.3598  -12.6847 O.3     1  <0>        -0.3557
     11 O3         -7.8752   -6.3629  -17.4635 O.2     1  <0>        -0.1369
     12 O4         -5.9688   -7.1792  -17.9296 O.2     1  <0>        -0.1369
     13 O5         -9.8744   -9.3105  -12.5410 O.2     1  <0>        -0.1368
     14 O6        -10.2329   -7.4507  -13.4458 O.2     1  <0>        -0.1368
     15 H1         -9.0006   -7.1132  -15.5610 H       1  <0>         0.0660
     16 H2         -5.2185   -8.9315  -16.4150 H       1  <0>         0.0665
     17 H3         -5.5673  -11.4209  -14.1813 H       1  <0>         0.2174
     18 H4         -8.3595  -10.6627  -12.5919 H       1  <0>         0.2175
@<TRIPOS>BOND
     1     1     3   ar
     2     1     4   ar
     3     2     3   ar
     4     2     5   ar
     5     3     7    1
     6     4     6   ar
     7     4     8    1
     8     5     6   ar
     9     5     9    1
    10     6    10    1
    11     7    11    2
    12     7    12    2
    13     8    13    2
    14     8    14    2
    15     1    15    1
    16     2    16    1
    17     9    17    1
    18    10    18    1
@<TRIPOS>SUBSTRUCTURE
     1 <0>         1 TEMP              0 ****  ****    0 ROOT

