
##########                                Name:        DNC_302_3BWM
##########                    Molecular_Weight:             200.108
##########                DOCK_Rotatable_Bonds:                   2
##########                       Formal_Charge:         0.000300005
##########                     HBond_Acceptors:                   8
##########                        HBond_Donors:                   2
##########                         Heavy_Atoms:                  14
##########                            HA_RMSDs:               7.394
##########                            HA_RMSDh:               6.981
##########                            HA_RMSDm:               5.692
##########                          Grid_Score:          -33.561024
##########                     Grid_vdw_energy:          -33.688660
##########                      Grid_es_energy:            0.127636
##########           Internal_energy_repulsive:            8.284000

@<TRIPOS>MOLECULE
DNC_302_3BWM
 18 18 1 0 0
SMALL
USER_CHARGES


@<TRIPOS>ATOM
      1 C1         -8.6402   -7.6365  -15.2340 C.ar    1  <0>        -0.0030
      2 C2         -6.3875   -8.4634  -15.6757 C.ar    1  <0>        -0.0013
      3 C3         -7.4872   -7.6731  -16.0187 C.ar    1  <0>         0.1217
      4 C4         -8.7472   -8.3956  -14.0773 C.ar    1  <0>         0.1511
      5 C5         -6.4049   -9.2535  -14.5392 C.ar    1  <0>         0.1063
      6 C6         -7.6096   -9.2493  -13.6843 C.ar    1  <0>         0.1307
      7 N1         -7.4281   -6.8720  -17.1650 N.pl3   1  <0>         0.0926
      8 N2         -9.9051   -8.3422  -13.2918 N.pl3   1  <0>         0.0951
      9 O1         -5.3364  -10.0343  -14.2100 O.3     1  <0>        -0.3572
     10 O2         -7.6449  -10.0118  -12.5611 O.3     1  <0>        -0.3557
     11 O3         -8.3980   -6.1934  -17.4431 O.2     1  <0>        -0.1369
     12 O4         -6.4147   -6.8265  -17.8715 O.2     1  <0>        -0.1369
     13 O5        -10.1494   -9.2052  -12.4654 O.2     1  <0>        -0.1368
     14 O6        -10.6810   -7.4131  -13.4201 O.2     1  <0>        -0.1368
     15 H1         -9.4646   -7.0057  -15.5323 H       1  <0>         0.0660
     16 H2         -5.5108   -8.4577  -16.3065 H       1  <0>         0.0665
     17 H3         -5.4328  -10.3437  -13.3171 H       1  <0>         0.2174
     18 H4         -8.5440  -10.2501  -12.3678 H       1  <0>         0.2175
@<TRIPOS>BOND
     1     1     3   ar
     2     1     4   ar
     3     2     3   ar
     4     2     5   ar
     5     3     7    1
     6     4     6   ar
     7     4     8    1
     8     5     6   ar
     9     5     9    1
    10     6    10    1
    11     7    11    2
    12     7    12    2
    13     8    13    2
    14     8    14    2
    15     1    15    1
    16     2    16    1
    17     9    17    1
    18    10    18    1
@<TRIPOS>SUBSTRUCTURE
     1 <0>         1 TEMP              0 ****  ****    0 ROOT

