
##########                                Name:        DNC_302_3BWM
##########                    Molecular_Weight:             200.108
##########                DOCK_Rotatable_Bonds:                   2
##########                       Formal_Charge:         0.000300005
##########                     HBond_Acceptors:                   8
##########                        HBond_Donors:                   2
##########                         Heavy_Atoms:                  14
##########                            HA_RMSDs:               6.519
##########                            HA_RMSDh:               6.362
##########                            HA_RMSDm:               5.480
##########                          Grid_Score:          -34.318375
##########                     Grid_vdw_energy:          -32.924858
##########                      Grid_es_energy:           -1.393517
##########           Internal_energy_repulsive:            8.283980

@<TRIPOS>MOLECULE
DNC_302_3BWM
 18 18 1 0 0
SMALL
USER_CHARGES


@<TRIPOS>ATOM
      1 C1         -4.4824  -10.4560  -11.9063 C.ar    1  <0>        -0.0030
      2 C2         -2.8063  -11.9183  -12.9093 C.ar    1  <0>        -0.0013
      3 C3         -3.3007  -11.1929  -11.8226 C.ar    1  <0>         0.1217
      4 C4         -5.2161  -10.4048  -13.0830 C.ar    1  <0>         0.1511
      5 C5         -3.4719  -11.9252  -14.1231 C.ar    1  <0>         0.1063
      6 C6         -4.7234  -11.1519  -14.2563 C.ar    1  <0>         0.1307
      7 N1         -2.6119  -11.2233  -10.6044 N.pl3   1  <0>         0.0926
      8 N2         -6.4065   -9.6708  -13.1518 N.pl3   1  <0>         0.0951
      9 O1         -2.9836  -12.6234  -15.1880 O.3     1  <0>        -0.3572
     10 O2         -5.3958  -11.1507  -15.4362 O.3     1  <0>        -0.3557
     11 O3         -3.0616  -10.5835   -9.6733 O.2     1  <0>        -0.1369
     12 O4         -1.5865  -11.8979  -10.4571 O.2     1  <0>        -0.1369
     13 O5         -6.8961   -9.3583  -14.2243 O.2     1  <0>        -0.1368
     14 O6         -6.9773   -9.3461  -12.1269 O.2     1  <0>        -0.1368
     15 H1         -4.8326   -9.9154  -11.0393 H       1  <0>         0.0660
     16 H2         -1.8915  -12.4820  -12.8009 H       1  <0>         0.0665
     17 H3         -3.6954  -13.0796  -15.6213 H       1  <0>         0.2174
     18 H4         -6.2989  -10.8970  -15.2863 H       1  <0>         0.2175
@<TRIPOS>BOND
     1     1     3   ar
     2     1     4   ar
     3     2     3   ar
     4     2     5   ar
     5     3     7    1
     6     4     6   ar
     7     4     8    1
     8     5     6   ar
     9     5     9    1
    10     6    10    1
    11     7    11    2
    12     7    12    2
    13     8    13    2
    14     8    14    2
    15     1    15    1
    16     2    16    1
    17     9    17    1
    18    10    18    1
@<TRIPOS>SUBSTRUCTURE
     1 <0>         1 TEMP              0 ****  ****    0 ROOT

