
##########                                Name:        DNC_302_3BWM
##########                    Molecular_Weight:             200.108
##########                DOCK_Rotatable_Bonds:                   2
##########                       Formal_Charge:         0.000300005
##########                     HBond_Acceptors:                   8
##########                        HBond_Donors:                   2
##########                         Heavy_Atoms:                  14
##########                            HA_RMSDs:               5.577
##########                            HA_RMSDh:               4.073
##########                            HA_RMSDm:               3.409
##########                          Grid_Score:          -32.804127
##########                     Grid_vdw_energy:          -30.798944
##########                      Grid_es_energy:           -2.005182
##########           Internal_energy_repulsive:            8.283965

@<TRIPOS>MOLECULE
DNC_302_3BWM
 18 18 1 0 0
SMALL
USER_CHARGES


@<TRIPOS>ATOM
      1 C1         -5.6943   -9.5998  -16.4711 C.ar    1  <0>        -0.0030
      2 C2         -6.9666   -8.6261  -14.6308 C.ar    1  <0>        -0.0013
      3 C3         -6.4650   -8.5686  -15.9334 C.ar    1  <0>         0.1217
      4 C4         -5.3839  -10.7289  -15.7266 C.ar    1  <0>         0.1511
      5 C5         -6.7073   -9.7140  -13.8151 C.ar    1  <0>         0.1063
      6 C6         -5.8890  -10.8245  -14.3434 C.ar    1  <0>         0.1307
      7 N1         -6.7624   -7.4618  -16.7369 N.pl3   1  <0>         0.0926
      8 N2         -4.6188  -11.7625  -16.2808 N.pl3   1  <0>         0.0951
      9 O1         -7.1866   -9.7655  -12.5393 O.3     1  <0>        -0.3572
     10 O2         -5.6285  -11.9044  -13.5623 O.3     1  <0>        -0.3557
     11 O3         -6.3140   -7.4343  -17.8669 O.2     1  <0>        -0.1369
     12 O4         -7.4807   -6.5412  -16.3310 O.2     1  <0>        -0.1369
     13 O5         -4.0807  -12.5994  -15.5756 O.2     1  <0>        -0.1368
     14 O6         -4.4947  -11.8424  -17.4891 O.2     1  <0>        -0.1368
     15 H1         -5.3327   -9.5177  -17.4855 H       1  <0>         0.0660
     16 H2         -7.5655   -7.8098  -14.2547 H       1  <0>         0.0665
     17 H3         -7.1476  -10.6600  -12.2218 H       1  <0>         0.2174
     18 H4         -5.8269  -12.6991  -14.0434 H       1  <0>         0.2175
@<TRIPOS>BOND
     1     1     3   ar
     2     1     4   ar
     3     2     3   ar
     4     2     5   ar
     5     3     7    1
     6     4     6   ar
     7     4     8    1
     8     5     6   ar
     9     5     9    1
    10     6    10    1
    11     7    11    2
    12     7    12    2
    13     8    13    2
    14     8    14    2
    15     1    15    1
    16     2    16    1
    17     9    17    1
    18    10    18    1
@<TRIPOS>SUBSTRUCTURE
     1 <0>         1 TEMP              0 ****  ****    0 ROOT

