
##########                                Name:        DNC_302_3BWM
##########                    Molecular_Weight:             200.108
##########                DOCK_Rotatable_Bonds:                   2
##########                       Formal_Charge:         0.000300005
##########                     HBond_Acceptors:                   8
##########                        HBond_Donors:                   2
##########                         Heavy_Atoms:                  14
##########                            HA_RMSDs:               4.676
##########                            HA_RMSDh:               4.402
##########                            HA_RMSDm:               3.856
##########                          Grid_Score:          -29.567287
##########                     Grid_vdw_energy:          -28.533863
##########                      Grid_es_energy:           -1.033423
##########           Internal_energy_repulsive:            8.284026

@<TRIPOS>MOLECULE
DNC_302_3BWM
 18 18 1 0 0
SMALL
USER_CHARGES


@<TRIPOS>ATOM
      1 C1         -4.8448  -11.4614  -14.7121 C.ar    1  <0>        -0.0030
      2 C2         -5.3696  -10.4929  -16.8894 C.ar    1  <0>        -0.0013
      3 C3         -4.7664  -11.4791  -16.1050 C.ar    1  <0>         0.1217
      4 C4         -5.5219  -10.4518  -14.0428 C.ar    1  <0>         0.1511
      5 C5         -6.0658   -9.4473  -16.3079 C.ar    1  <0>         0.1063
      6 C6         -6.1668   -9.3872  -14.8354 C.ar    1  <0>         0.1307
      7 N1         -4.0860  -12.5324  -16.7269 N.pl3   1  <0>         0.0926
      8 N2         -5.6033  -10.4505  -12.6449 N.pl3   1  <0>         0.0951
      9 O1         -6.6449   -8.4777  -17.0725 O.3     1  <0>        -0.3572
     10 O2         -6.8511   -8.3737  -14.2448 O.3     1  <0>        -0.3557
     11 O3         -3.5687  -13.3783  -16.0230 O.2     1  <0>        -0.1369
     12 O4         -4.0255  -12.6267  -17.9581 O.2     1  <0>        -0.1369
     13 O5         -5.9119   -9.4436  -12.0300 O.2     1  <0>        -0.1368
     14 O6         -5.3769  -11.4732  -12.0248 O.2     1  <0>        -0.1368
     15 H1         -4.3699  -12.2479  -14.1444 H       1  <0>         0.0660
     16 H2         -5.2916  -10.5472  -17.9652 H       1  <0>         0.0665
     17 H3         -6.6751   -7.6640  -16.5833 H       1  <0>         0.2174
     18 H4         -6.8822   -8.5168  -13.3062 H       1  <0>         0.2175
@<TRIPOS>BOND
     1     1     3   ar
     2     1     4   ar
     3     2     3   ar
     4     2     5   ar
     5     3     7    1
     6     4     6   ar
     7     4     8    1
     8     5     6   ar
     9     5     9    1
    10     6    10    1
    11     7    11    2
    12     7    12    2
    13     8    13    2
    14     8    14    2
    15     1    15    1
    16     2    16    1
    17     9    17    1
    18    10    18    1
@<TRIPOS>SUBSTRUCTURE
     1 <0>         1 TEMP              0 ****  ****    0 ROOT

