
##########                                Name:               *****
##########                    Molecular_Weight:              321.44
##########                DOCK_Rotatable_Bonds:                   8
##########                       Formal_Charge:              1.0002
##########                     HBond_Acceptors:                   5
##########                        HBond_Donors:                   3
##########                         Heavy_Atoms:                  23
##########                            HA_RMSDs:               0.283
##########                            HA_RMSDh:               0.283
##########                            HA_RMSDm:               0.283
##########                          Grid_Score:          -51.622952
##########                     Grid_vdw_energy:          -43.896198
##########                      Grid_es_energy:           -7.726754
##########           Internal_energy_repulsive:           25.207241

@<TRIPOS>MOLECULE
*****
 52 53 1 0 0
SMALL
USER_CHARGES


@<TRIPOS>ATOM
      1 C1         12.2878   19.2525   23.0112 C.3     1  <0>        -0.0372
      2 C2          7.8810   19.0255   22.0993 C.ar    1  <0>         0.0903
      3 N1          8.0835   22.6208   22.8770 N.am    1  <0>        -0.3058
      4 O1          6.5541   18.9568   21.8110 O.3     1  <0>        -0.3587
      5 C3          8.6853   17.9026   21.8730 C.ar    1  <0>        -0.0168
      6 N2          7.6404   24.3233   25.4480 N.4     1  <0>         0.2383
      7 O2         10.3544   21.3959   23.4189 O.3     1  <0>        -0.3468
      8 C4         10.0525   17.9915   22.1441 C.ar    1  <0>        -0.0507
      9 O3          6.2666   21.2793   22.8870 O.2     1  <0>        -0.2700
     10 C5         10.5984   19.1675   22.6527 C.ar    1  <0>        -0.0193
     11 C6          9.7889   20.2754   22.8975 C.ar    1  <0>         0.0933
     12 C7         10.4688   21.2360   24.8396 C.3     1  <0>         0.0431
     13 C8          8.4148   20.2087   22.6309 C.ar    1  <0>         0.0967
     14 C9          7.4853   21.4276   22.8347 C.2     1  <0>         0.2493
     15 C10         7.3516   23.8936   23.0344 C.3     1  <0>         0.0548
     16 C11         6.6595   23.9722   24.4000 C.3     1  <0>        -0.0048
     17 C12         5.6264   25.0958   24.3826 C.3     1  <0>        -0.0034
     18 C13         6.4287   26.2946   24.8608 C.3     1  <0>        -0.0074
     19 C14         7.3048   25.6756   25.9394 C.3     1  <0>        -0.0314
     20 C15         7.5284   23.3522   26.5451 C.3     1  <0>        -0.0345
     21 C16         8.7593   23.4209   27.4368 C.3     1  <0>        -0.0245
     22 C17         8.1850   16.5780   21.2698 C.3     1  <0>        -0.0281
     23 C18         7.1812   15.8579   22.1739 C.3     1  <0>        -0.0612
     24 H1         12.8336   19.6096   22.1255 H       1  <0>         0.0278
     25 H2         12.4505   19.9486   23.8472 H       1  <0>         0.0278
     26 H3         12.6541   18.2533   23.2894 H       1  <0>         0.0278
     27 H4          9.0798   22.6541   22.7980 H       1  <0>         0.1492
     28 H5          6.1211   19.7433   22.1213 H       1  <0>         0.2174
     29 H6          8.5742   24.3069   25.0907 H       1  <0>         0.2037
     30 H7         10.6918   17.1412   21.9577 H       1  <0>         0.0625
     31 H8         10.9256   22.1371   25.2748 H       1  <0>         0.0529
     32 H9          9.4690   21.0860   25.2732 H       1  <0>         0.0529
     33 H10        11.0993   20.3622   25.0604 H       1  <0>         0.0529
     34 H11         8.0644   24.7270   22.9482 H       1  <0>         0.0518
     35 H12         6.5895   23.9659   22.2445 H       1  <0>         0.0518
     36 H13         6.1954   22.9960   24.6043 H       1  <0>         0.0867
     37 H14         5.2139   25.2558   23.3755 H       1  <0>         0.0322
     38 H15         4.7776   24.8806   25.0484 H       1  <0>         0.0322
     39 H16         7.0238   26.7432   24.0517 H       1  <0>         0.0319
     40 H17         5.7837   27.0916   25.2591 H       1  <0>         0.0319
     41 H18         8.2157   26.2727   26.0933 H       1  <0>         0.0814
     42 H19         6.7661   25.6211   26.8969 H       1  <0>         0.0814
     43 H20         6.6347   23.5833   27.1433 H       1  <0>         0.0812
     44 H21         7.4421   22.3394   26.1247 H       1  <0>         0.0812
     45 H22         8.6627   22.6899   28.2530 H       1  <0>         0.0281
     46 H23         9.6558   23.1904   26.8424 H       1  <0>         0.0281
     47 H24         8.8495   24.4325   27.8595 H       1  <0>         0.0281
     48 H25         7.6932   16.7972   20.3106 H       1  <0>         0.0311
     49 H26         9.0510   15.9171   21.1170 H       1  <0>         0.0311
     50 H27         6.8599   14.9220   21.6935 H       1  <0>         0.0233
     51 H28         7.6558   15.6300   23.1397 H       1  <0>         0.0233
     52 H29         6.3067   16.5045   22.3384 H       1  <0>         0.0233
@<TRIPOS>BOND
     1     5    22    1
     2    22    23    1
     3     5     8   ar
     4     2     5   ar
     5     2     4    1
     6     8    10   ar
     7     2    13   ar
     8     1    10    1
     9    10    11   ar
    10    11    13   ar
    11    13    14    1
    12     3    14   am
    13     3    15    1
    14     7    11    1
    15     9    14    2
    16    15    16    1
    17     7    12    1
    18    16    17    1
    19     6    16    1
    20    17    18    1
    21    18    19    1
    22     6    19    1
    23     6    20    1
    24    20    21    1
    25     1    24    1
    26     1    25    1
    27     1    26    1
    28     3    27    1
    29     4    28    1
    30     6    29    1
    31     8    30    1
    32    12    31    1
    33    12    32    1
    34    12    33    1
    35    15    34    1
    36    15    35    1
    37    16    36    1
    38    17    37    1
    39    17    38    1
    40    18    39    1
    41    18    40    1
    42    19    41    1
    43    19    42    1
    44    20    43    1
    45    20    44    1
    46    21    45    1
    47    21    46    1
    48    21    47    1
    49    22    48    1
    50    22    49    1
    51    23    50    1
    52    23    51    1
    53    23    52    1
@<TRIPOS>SUBSTRUCTURE
     1 <0>         1 TEMP              0 ****  ****    0 ROOT

