
##########                                Name:        OHT_101_2FSZ
##########                    Molecular_Weight:             390.545
##########                DOCK_Rotatable_Bonds:                  10
##########                       Formal_Charge:              0.9997
##########                     HBond_Acceptors:                   3
##########                        HBond_Donors:                   2
##########                         Heavy_Atoms:                  29
##########                            HA_RMSDs:               0.552
##########                            HA_RMSDh:               0.552
##########                            HA_RMSDm:               0.552
##########                          Grid_Score:          -83.725769
##########                     Grid_vdw_energy:          -41.013668
##########                      Grid_es_energy:          -42.712105
##########           Internal_energy_repulsive:           17.545656

@<TRIPOS>MOLECULE
OHT_101_2FSZ
 61 63 1 0 0
SMALL
USER_CHARGES


@<TRIPOS>ATOM
      1 C1         90.0108   19.1709   -4.2558 C.3     1  <0>        -0.0647
      2 C2        102.4016   23.2546   -0.7247 C.3     1  <0>        -0.0433
      3 C3        100.3185   22.8013    0.3162 C.3     1  <0>        -0.0433
      4 C4         94.1638   15.8492   -2.1012 C.ar    1  <0>        -0.0617
      5 C5         94.0546   15.6434   -3.5415 C.ar    1  <0>        -0.0615
      6 C6         93.7768   17.1003   -1.4785 C.ar    1  <0>        -0.0615
      7 C7         93.5447   16.7158   -4.3931 C.ar    1  <0>        -0.0583
      8 C8         93.2687   18.1686   -2.3140 C.ar    1  <0>        -0.0583
      9 C9         91.5018   22.3118   -5.4182 C.ar    1  <0>        -0.0555
     10 C10        93.6294   22.2948   -6.7096 C.ar    1  <0>        -0.0555
     11 C11        94.8896   21.7301   -3.1974 C.ar    1  <0>        -0.0555
     12 C12        95.8009   19.7228   -4.4562 C.ar    1  <0>        -0.0555
     13 C13        91.0412   23.4622   -6.1341 C.ar    1  <0>        -0.0317
     14 C14        93.1874   23.4554   -7.4461 C.ar    1  <0>        -0.0317
     15 C15        96.1834   21.9080   -2.5713 C.ar    1  <0>        -0.0314
     16 C16        97.0895   19.9068   -3.8266 C.ar    1  <0>        -0.0314
     17 C17        91.1915   18.7195   -5.1326 C.3     1  <0>        -0.0482
     18 C18       100.8180   21.8861   -1.9046 C.3     1  <0>        -0.0079
     19 C19        99.5034   22.0660   -2.6735 C.3     1  <0>         0.0940
     20 C20        93.1453   17.9915   -3.7753 C.ar    1  <0>        -0.0434
     21 C21        92.7968   21.6692   -5.6566 C.ar    1  <0>        -0.0392
     22 C22        94.6792   20.6246   -4.1547 C.ar    1  <0>        -0.0392
     23 C23        91.8916   24.0247   -7.1367 C.ar    1  <0>         0.0726
     24 C24        97.2930   20.9769   -2.8918 C.ar    1  <0>         0.0764
     25 C25        92.5957   19.1428   -4.6036 C.3     1  <0>        -0.0053
     26 C26        93.2903   20.4210   -4.8163 C.3     1  <0>         0.0160
     27 N1        100.9736   23.0253   -0.9809 N.4     1  <0>         0.2325
     28 O1         91.4667   25.1246   -7.8169 O.3     1  <0>        -0.3598
     29 O2         98.5831   21.0480   -2.3193 O.3     1  <0>        -0.3394
     30 H1         89.0673   18.8285   -4.7060 H       1  <0>         0.0230
     31 H2         90.1150   18.7385   -3.2498 H       1  <0>         0.0230
     32 H3         90.0058   20.2685   -4.1846 H       1  <0>         0.0230
     33 H4        102.9228   23.4263   -1.6780 H       1  <0>         0.0777
     34 H5        102.5210   24.1363   -0.0779 H       1  <0>         0.0777
     35 H6        102.8307   22.3731   -0.2259 H       1  <0>         0.0777
     36 H7         99.2440   22.6258    0.1593 H       1  <0>         0.0777
     37 H8        100.7655   21.9237    0.8059 H       1  <0>         0.0777
     38 H9        100.4558   23.6870    0.9540 H       1  <0>         0.0777
     39 H10        94.5426   15.0490   -1.4827 H       1  <0>         0.0618
     40 H11        94.3501   14.7005   -3.9772 H       1  <0>         0.0618
     41 H12        93.8659   17.2332   -0.4104 H       1  <0>         0.0618
     42 H13        93.4619   16.5747   -5.4607 H       1  <0>         0.0620
     43 H14        92.9766   19.1056   -1.8634 H       1  <0>         0.0620
     44 H15        90.8579   21.8934   -4.6587 H       1  <0>         0.0621
     45 H16        94.5966   21.8698   -6.9335 H       1  <0>         0.0621
     46 H17        94.0792   22.4050   -2.9647 H       1  <0>         0.0621
     47 H18        95.6606   18.9129   -5.1567 H       1  <0>         0.0621
     48 H19        90.0747   23.8952   -5.9222 H       1  <0>         0.0643
     49 H20        93.8108   23.8908   -8.2130 H       1  <0>         0.0643
     50 H21        96.3400   22.7166   -1.8727 H       1  <0>         0.0643
     51 H22        97.9028   19.2358   -4.0609 H       1  <0>         0.0643
     52 H23        91.1699   17.6209   -5.1848 H       1  <0>         0.0269
     53 H24        91.0596   19.1665   -6.1290 H       1  <0>         0.0269
     54 H25       100.7928   20.9446   -1.3362 H       1  <0>         0.0837
     55 H26       101.6624   21.8581   -2.6091 H       1  <0>         0.0837
     56 H27        99.0709   23.0466   -2.4259 H       1  <0>         0.0619
     57 H28        99.7056   22.0110   -3.7534 H       1  <0>         0.0619
     58 H29        92.9981   20.0995   -4.9682 H       1  <0>         0.0358
     59 H30        92.3381   19.9923   -5.1623 H       1  <0>         0.0403
     60 H31       100.5424   23.8126   -1.4215 H       1  <0>         0.2028
     61 H32        92.1964   25.5060   -8.2907 H       1  <0>         0.2173
@<TRIPOS>BOND
     1     1    17    1
     2     2    27    1
     3     3    27    1
     4     4     5   ar
     5     4     6   ar
     6     5     7   ar
     7     6     8   ar
     8     7    20   ar
     9     8    20   ar
    10     9    13   ar
    11     9    21   ar
    12    10    14   ar
    13    10    21   ar
    14    11    15   ar
    15    11    22   ar
    16    12    16   ar
    17    12    22   ar
    18    13    23   ar
    19    14    23   ar
    20    15    24   ar
    21    16    24   ar
    22    17    25    1
    23    18    19    1
    24    18    27    1
    25    19    29    1
    26    20    25    1
    27    21    26    1
    28    22    26    1
    29    23    28    1
    30    24    29    1
    31    25    26    1
    32     1    30    1
    33     1    31    1
    34     1    32    1
    35     2    33    1
    36     2    34    1
    37     2    35    1
    38     3    36    1
    39     3    37    1
    40     3    38    1
    41     4    39    1
    42     5    40    1
    43     6    41    1
    44     7    42    1
    45     8    43    1
    46     9    44    1
    47    10    45    1
    48    11    46    1
    49    12    47    1
    50    13    48    1
    51    14    49    1
    52    15    50    1
    53    16    51    1
    54    17    52    1
    55    17    53    1
    56    18    54    1
    57    18    55    1
    58    19    56    1
    59    19    57    1
    60    25    58    1
    61    26    59    1
    62    27    60    1
    63    28    61    1
@<TRIPOS>SUBSTRUCTURE
     1 <0>         1 TEMP              0 ****  ****    0 ROOT

