
##########                                Name:        OHT_101_2FSZ
##########                    Molecular_Weight:             390.545
##########                DOCK_Rotatable_Bonds:                  10
##########                       Formal_Charge:              0.9997
##########                     HBond_Acceptors:                   3
##########                        HBond_Donors:                   2
##########                         Heavy_Atoms:                  29
##########                            HA_RMSDs:               0.521
##########                            HA_RMSDh:               0.521
##########                            HA_RMSDm:               0.514
##########                          Grid_Score:          -88.842255
##########                     Grid_vdw_energy:          -45.060284
##########                      Grid_es_energy:          -43.781975
##########           Internal_energy_repulsive:           13.539407

@<TRIPOS>MOLECULE
OHT_101_2FSZ
 61 63 1 0 0
SMALL
USER_CHARGES


@<TRIPOS>ATOM
      1 C1         89.7624   18.5542   -4.5791 C.3     1  <0>        -0.0647
      2 C2        102.3006   23.0858   -1.2152 C.3     1  <0>        -0.0433
      3 C3        100.1630   22.9463   -0.1957 C.3     1  <0>        -0.0433
      4 C4         93.7933   15.6463   -2.0256 C.ar    1  <0>        -0.0617
      5 C5         94.0806   15.5857   -3.4548 C.ar    1  <0>        -0.0615
      6 C6         93.0534   16.7490   -1.4431 C.ar    1  <0>        -0.0615
      7 C7         93.6186   16.6560   -4.3359 C.ar    1  <0>        -0.0583
      8 C8         92.5899   17.8137   -2.3084 C.ar    1  <0>        -0.0583
      9 C9         91.0914   22.1762   -4.7489 C.ar    1  <0>        -0.0555
     10 C10        92.9561   22.3365   -6.3896 C.ar    1  <0>        -0.0555
     11 C11        94.6708   21.5825   -3.2120 C.ar    1  <0>        -0.0555
     12 C12        95.4606   19.5097   -4.4465 C.ar    1  <0>        -0.0555
     13 C13        90.5160   23.3917   -5.2384 C.ar    1  <0>        -0.0317
     14 C14        92.3954   23.5647   -6.9014 C.ar    1  <0>        -0.0317
     15 C15        96.0023   21.7492   -2.6673 C.ar    1  <0>        -0.0314
     16 C16        96.7873   19.6826   -3.8983 C.ar    1  <0>        -0.0314
     17 C17        91.0743   18.4103   -5.3695 C.3     1  <0>        -0.0482
     18 C18       100.6499   21.6659   -2.2310 C.3     1  <0>        -0.0079
     19 C19        99.3293   21.7855   -3.0016 C.3     1  <0>         0.0940
     20 C20        92.8638   17.7815   -3.7596 C.ar    1  <0>        -0.0434
     21 C21        92.3210   21.5847   -5.2830 C.ar    1  <0>        -0.0392
     22 C22        94.3796   20.4498   -4.1148 C.ar    1  <0>        -0.0392
     23 C23        91.1775   24.0755   -6.3060 C.ar    1  <0>         0.0726
     24 C24        97.0695   20.7794   -3.0162 C.ar    1  <0>         0.0764
     25 C25        92.3445   18.9208   -4.6233 C.3     1  <0>        -0.0053
     26 C26        92.9504   20.2587   -4.6886 C.3     1  <0>         0.0160
     27 N1        100.8665   22.9205   -1.4864 N.4     1  <0>         0.2325
     28 O1         90.6432   25.2373   -6.7726 O.3     1  <0>        -0.3598
     29 O2         98.3917   20.8375   -2.5209 O.3     1  <0>        -0.3394
     30 H1         88.9265   18.1700   -5.1822 H       1  <0>         0.0230
     31 H2         89.8334   17.9803   -3.6434 H       1  <0>         0.0230
     32 H3         89.5892   19.6152   -4.3464 H       1  <0>         0.0230
     33 H4        102.8578   23.0710   -2.1635 H       1  <0>         0.0777
     34 H5        102.4690   24.0464   -0.7063 H       1  <0>         0.0777
     35 H6        102.6492   22.2641   -0.5724 H       1  <0>         0.0777
     36 H7         99.0827   22.8244   -0.3637 H       1  <0>         0.0777
     37 H8        100.5300   22.1257    0.4383 H       1  <0>         0.0777
     38 H9        100.3498   23.9080    0.3045 H       1  <0>         0.0777
     39 H10        94.1406   14.8493   -1.3850 H       1  <0>         0.0618
     40 H11        94.6336   14.7515   -3.8605 H       1  <0>         0.0618
     41 H12        92.8516   16.7759   -0.3824 H       1  <0>         0.0618
     42 H13        93.8277   16.6219   -5.3949 H       1  <0>         0.0620
     43 H14        92.0375   18.6410   -1.8879 H       1  <0>         0.0620
     44 H15        90.5907   21.6658   -3.9394 H       1  <0>         0.0621
     45 H16        93.8666   21.9544   -6.8271 H       1  <0>         0.0621
     46 H17        93.8912   22.2857   -2.9584 H       1  <0>         0.0621
     47 H18        95.2610   18.6796   -5.1079 H       1  <0>         0.0621
     48 H19        89.6043   23.7830   -4.8119 H       1  <0>         0.0643
     49 H20        92.8747   24.0924   -7.7126 H       1  <0>         0.0643
     50 H21        96.2180   22.5775   -2.0087 H       1  <0>         0.0643
     51 H22        97.5697   18.9834   -4.1538 H       1  <0>         0.0643
     52 H23        91.2196   17.3418   -5.5867 H       1  <0>         0.0269
     53 H24        90.9730   18.9933   -6.2968 H       1  <0>         0.0269
     54 H25       100.5985   20.8194   -1.5303 H       1  <0>         0.0837
     55 H26       101.4794   21.5005   -2.9342 H       1  <0>         0.0837
     56 H27        98.9218   22.7981   -2.8657 H       1  <0>         0.0619
     57 H28        99.5159   21.6001   -4.0697 H       1  <0>         0.0619
     58 H29        92.7123   19.9219   -4.8927 H       1  <0>         0.0358
     59 H30        91.9951   19.8263   -5.0210 H       1  <0>         0.0403
     60 H31       100.5071   23.6584   -2.0575 H       1  <0>         0.2028
     61 H32        91.2574   25.6529   -7.3663 H       1  <0>         0.2173
@<TRIPOS>BOND
     1     1    17    1
     2     2    27    1
     3     3    27    1
     4     4     5   ar
     5     4     6   ar
     6     5     7   ar
     7     6     8   ar
     8     7    20   ar
     9     8    20   ar
    10     9    13   ar
    11     9    21   ar
    12    10    14   ar
    13    10    21   ar
    14    11    15   ar
    15    11    22   ar
    16    12    16   ar
    17    12    22   ar
    18    13    23   ar
    19    14    23   ar
    20    15    24   ar
    21    16    24   ar
    22    17    25    1
    23    18    19    1
    24    18    27    1
    25    19    29    1
    26    20    25    1
    27    21    26    1
    28    22    26    1
    29    23    28    1
    30    24    29    1
    31    25    26    1
    32     1    30    1
    33     1    31    1
    34     1    32    1
    35     2    33    1
    36     2    34    1
    37     2    35    1
    38     3    36    1
    39     3    37    1
    40     3    38    1
    41     4    39    1
    42     5    40    1
    43     6    41    1
    44     7    42    1
    45     8    43    1
    46     9    44    1
    47    10    45    1
    48    11    46    1
    49    12    47    1
    50    13    48    1
    51    14    49    1
    52    15    50    1
    53    16    51    1
    54    17    52    1
    55    17    53    1
    56    18    54    1
    57    18    55    1
    58    19    56    1
    59    19    57    1
    60    25    58    1
    61    26    59    1
    62    27    60    1
    63    28    61    1
@<TRIPOS>SUBSTRUCTURE
     1 <0>         1 TEMP              0 ****  ****    0 ROOT

