
##########                                Name:        OHT_101_2FSZ
##########                    Molecular_Weight:             390.545
##########                DOCK_Rotatable_Bonds:                  10
##########                       Formal_Charge:              0.9997
##########                     HBond_Acceptors:                   3
##########                        HBond_Donors:                   2
##########                         Heavy_Atoms:                  29
##########                            HA_RMSDs:               0.555
##########                            HA_RMSDh:               0.555
##########                            HA_RMSDm:               0.553
##########                          Grid_Score:          -88.530228
##########                     Grid_vdw_energy:          -42.623978
##########                      Grid_es_energy:          -45.906254
##########           Internal_energy_repulsive:           11.867405

@<TRIPOS>MOLECULE
OHT_101_2FSZ
 61 63 1 0 0
SMALL
USER_CHARGES


@<TRIPOS>ATOM
      1 C1         89.9184   18.8667   -4.6593 C.3     1  <0>        -0.0647
      2 C2        102.7374   23.0277   -1.4915 C.3     1  <0>        -0.0433
      3 C3        100.5741   23.5654   -0.6796 C.3     1  <0>        -0.0433
      4 C4         93.8663   15.7094   -1.8395 C.ar    1  <0>        -0.0617
      5 C5         94.4553   15.8039   -3.1710 C.ar    1  <0>        -0.0615
      6 C6         92.8620   16.6500   -1.3819 C.ar    1  <0>        -0.0615
      7 C7         94.0339   16.8682   -4.0793 C.ar    1  <0>        -0.0583
      8 C8         92.4366   17.7074   -2.2754 C.ar    1  <0>        -0.0583
      9 C9         91.3228   22.2337   -4.6226 C.ar    1  <0>        -0.0555
     10 C10        93.1239   22.3457   -6.3367 C.ar    1  <0>        -0.0555
     11 C11        94.8602   21.3139   -2.9204 C.ar    1  <0>        -0.0555
     12 C12        95.7218   19.7583   -4.7320 C.ar    1  <0>        -0.0555
     13 C13        90.7517   23.4563   -5.0991 C.ar    1  <0>        -0.0317
     14 C14        92.5668   23.5806   -6.8361 C.ar    1  <0>        -0.0317
     15 C15        96.2119   21.4597   -2.4214 C.ar    1  <0>        -0.0314
     16 C16        97.0685   19.9086   -4.2276 C.ar    1  <0>        -0.0314
     17 C17        91.2576   18.4394   -5.2841 C.3     1  <0>        -0.0482
     18 C18       100.8730   21.7413   -2.2928 C.3     1  <0>        -0.0079
     19 C19        99.5152   21.8886   -2.9904 C.3     1  <0>         0.0940
     20 C20        93.0130   17.8298   -3.6300 C.ar    1  <0>        -0.0434
     21 C21        92.5189   21.6146   -5.1998 C.ar    1  <0>        -0.0392
     22 C22        94.5950   20.4524   -4.0911 C.ar    1  <0>        -0.0392
     23 C23        91.3832   24.1192   -6.1974 C.ar    1  <0>         0.0726
     24 C24        97.3261   20.7405   -3.0865 C.ar    1  <0>         0.0764
     25 C25        92.5221   18.9530   -4.5305 C.3     1  <0>        -0.0053
     26 C26        93.1461   20.2812   -4.6198 C.3     1  <0>         0.0160
     27 N1        101.3145   23.0779   -1.8525 N.4     1  <0>         0.2325
     28 O1         90.8531   25.2876   -6.6522 O.3     1  <0>        -0.3598
     29 O2         98.6739   20.7954   -2.6650 O.3     1  <0>        -0.3394
     30 H1         89.0885   18.4600   -5.2559 H       1  <0>         0.0230
     31 H2         89.8540   18.4812   -3.6311 H       1  <0>         0.0230
     32 H3         89.8550   19.9648   -4.6440 H       1  <0>         0.0230
     33 H4        103.3216   22.6657   -2.3504 H       1  <0>         0.0777
     34 H5        103.0808   24.0350   -1.2133 H       1  <0>         0.0777
     35 H6        102.8757   22.3448   -0.6402 H       1  <0>         0.0777
     36 H7         99.5012   23.6150   -0.9172 H       1  <0>         0.0777
     37 H8        100.7311   22.8779    0.1646 H       1  <0>         0.0777
     38 H9        100.9361   24.5681   -0.4083 H       1  <0>         0.0777
     39 H10        94.1866   14.9185   -1.1776 H       1  <0>         0.0618
     40 H11        95.2012   15.0886   -3.4847 H       1  <0>         0.0618
     41 H12        92.4387   16.5635   -0.3921 H       1  <0>         0.0618
     42 H13        94.4650   16.9484   -5.0662 H       1  <0>         0.0620
     43 H14        91.6892   18.4147   -1.9476 H       1  <0>         0.0620
     44 H15        90.8449   21.7390   -3.7899 H       1  <0>         0.0621
     45 H16        94.0090   21.9429   -6.8066 H       1  <0>         0.0621
     46 H17        94.0466   21.8345   -2.4372 H       1  <0>         0.0621
     47 H18        95.5413   19.1282   -5.5904 H       1  <0>         0.0621
     48 H19        89.8650   23.8683   -4.6402 H       1  <0>         0.0643
     49 H20        93.0236   24.0930   -7.6699 H       1  <0>         0.0643
     50 H21        96.4084   22.0905   -1.5670 H       1  <0>         0.0643
     51 H22        97.8845   19.3925   -4.7116 H       1  <0>         0.0643
     52 H23        91.2914   17.3399   -5.2855 H       1  <0>         0.0269
     53 H24        91.2924   18.8385   -6.3085 H       1  <0>         0.0269
     54 H25       100.7761   21.0744   -1.4233 H       1  <0>         0.0837
     55 H26       101.6083   21.3162   -2.9917 H       1  <0>         0.0837
     56 H27        99.0383   22.8230   -2.6598 H       1  <0>         0.0619
     57 H28        99.6691   21.9149   -4.0793 H       1  <0>         0.0619
     58 H29        92.9069   19.9423   -4.8191 H       1  <0>         0.0358
     59 H30        92.1745   19.8624   -4.9209 H       1  <0>         0.0403
     60 H31       101.1449   23.7016   -2.6155 H       1  <0>         0.2028
     61 H32        91.1854   25.4688   -7.5235 H       1  <0>         0.2173
@<TRIPOS>BOND
     1     1    17    1
     2     2    27    1
     3     3    27    1
     4     4     5   ar
     5     4     6   ar
     6     5     7   ar
     7     6     8   ar
     8     7    20   ar
     9     8    20   ar
    10     9    13   ar
    11     9    21   ar
    12    10    14   ar
    13    10    21   ar
    14    11    15   ar
    15    11    22   ar
    16    12    16   ar
    17    12    22   ar
    18    13    23   ar
    19    14    23   ar
    20    15    24   ar
    21    16    24   ar
    22    17    25    1
    23    18    19    1
    24    18    27    1
    25    19    29    1
    26    20    25    1
    27    21    26    1
    28    22    26    1
    29    23    28    1
    30    24    29    1
    31    25    26    1
    32     1    30    1
    33     1    31    1
    34     1    32    1
    35     2    33    1
    36     2    34    1
    37     2    35    1
    38     3    36    1
    39     3    37    1
    40     3    38    1
    41     4    39    1
    42     5    40    1
    43     6    41    1
    44     7    42    1
    45     8    43    1
    46     9    44    1
    47    10    45    1
    48    11    46    1
    49    12    47    1
    50    13    48    1
    51    14    49    1
    52    15    50    1
    53    16    51    1
    54    17    52    1
    55    17    53    1
    56    18    54    1
    57    18    55    1
    58    19    56    1
    59    19    57    1
    60    25    58    1
    61    26    59    1
    62    27    60    1
    63    28    61    1
@<TRIPOS>SUBSTRUCTURE
     1 <0>         1 TEMP              0 ****  ****    0 ROOT

