
##########                                Name:        OHT_101_2FSZ
##########                    Molecular_Weight:             390.545
##########                DOCK_Rotatable_Bonds:                  10
##########                       Formal_Charge:              0.9997
##########                     HBond_Acceptors:                   3
##########                        HBond_Donors:                   2
##########                         Heavy_Atoms:                  29
##########                            HA_RMSDs:               0.621
##########                            HA_RMSDh:               0.621
##########                            HA_RMSDm:               0.621
##########                          Grid_Score:          -83.058601
##########                     Grid_vdw_energy:          -38.691673
##########                      Grid_es_energy:          -44.366928
##########           Internal_energy_repulsive:           18.674641

@<TRIPOS>MOLECULE
OHT_101_2FSZ
 61 63 1 0 0
SMALL
USER_CHARGES


@<TRIPOS>ATOM
      1 C1         90.0388   19.0105   -4.8249 C.3     1  <0>        -0.0647
      2 C2        102.1230   23.6046   -1.0169 C.3     1  <0>        -0.0433
      3 C3        100.0536   23.5353    0.1411 C.3     1  <0>        -0.0433
      4 C4         93.7915   15.7326   -1.8742 C.ar    1  <0>        -0.0617
      5 C5         94.2114   15.6089   -3.2660 C.ar    1  <0>        -0.0615
      6 C6         93.0166   16.8669   -1.4098 C.ar    1  <0>        -0.0615
      7 C7         93.8507   16.6464   -4.2298 C.ar    1  <0>        -0.0583
      8 C8         92.6528   17.8995   -2.3579 C.ar    1  <0>        -0.0583
      9 C9         91.6030   22.0983   -5.5012 C.ar    1  <0>        -0.0555
     10 C10        93.7806   22.1203   -6.7063 C.ar    1  <0>        -0.0555
     11 C11        94.9056   21.2952   -3.0856 C.ar    1  <0>        -0.0555
     12 C12        95.9047   19.5538   -4.6391 C.ar    1  <0>        -0.0555
     13 C13        91.1733   23.2745   -6.1940 C.ar    1  <0>        -0.0317
     14 C14        93.3702   23.3074   -7.4186 C.ar    1  <0>        -0.0317
     15 C15        96.1920   21.4330   -2.4345 C.ar    1  <0>        -0.0314
     16 C16        97.1856   19.6967   -3.9837 C.ar    1  <0>        -0.0314
     17 C17        91.3341   18.4547   -5.4413 C.3     1  <0>        -0.0482
     18 C18       100.6057   21.8087   -1.5122 C.3     1  <0>        -0.0079
     19 C19        99.5618   21.6761   -2.6278 C.3     1  <0>         0.0940
     20 C20        93.0619   17.8034   -3.7740 C.ar    1  <0>        -0.0434
     21 C21        92.9056   21.4607   -5.7100 C.ar    1  <0>        -0.0392
     22 C22        94.7434   20.3442   -4.2046 C.ar    1  <0>        -0.0392
     23 C23        92.0640   23.8693   -7.1414 C.ar    1  <0>         0.0726
     24 C24        97.3425   20.6159   -2.8923 C.ar    1  <0>         0.0764
     25 C25        92.6435   18.9112   -4.7287 C.3     1  <0>        -0.0053
     26 C26        93.3631   20.1824   -4.8951 C.3     1  <0>         0.0160
     27 N1        100.7075   23.2324   -1.1404 N.4     1  <0>         0.2325
     28 O1         91.6683   24.9936   -7.7989 O.3     1  <0>        -0.3598
     29 O2         98.6299   20.6564   -2.3109 O.3     1  <0>        -0.3394
     30 H1         89.1729   18.6364   -5.3909 H       1  <0>         0.0230
     31 H2         89.9614   18.6831   -3.7777 H       1  <0>         0.0230
     32 H3         90.0559   20.1096   -4.8653 H       1  <0>         0.0230
     33 H4        102.6430   23.3900   -1.9622 H       1  <0>         0.0777
     34 H5        102.2013   24.6784   -0.7914 H       1  <0>         0.0777
     35 H6        102.5851   23.0245   -0.2045 H       1  <0>         0.0777
     36 H7         98.9884   23.2672    0.0822 H       1  <0>         0.0777
     37 H8        100.5335   22.9558    0.9435 H       1  <0>         0.0777
     38 H9        100.1497   24.6097    0.3567 H       1  <0>         0.0777
     39 H10        94.0649   14.9593   -1.1717 H       1  <0>         0.0618
     40 H11        94.7876   14.7524   -3.5832 H       1  <0>         0.0618
     41 H12        92.7161   16.9404   -0.3751 H       1  <0>         0.0618
     42 H13        94.1583   16.5657   -5.2619 H       1  <0>         0.0620
     43 H14        92.0757   18.7497   -2.0256 H       1  <0>         0.0620
     44 H15        90.9286   21.6554   -4.7832 H       1  <0>         0.0621
     45 H16        94.7554   21.7007   -6.9061 H       1  <0>         0.0621
     46 H17        94.0656   21.8871   -2.7533 H       1  <0>         0.0621
     47 H18        95.7997   18.8576   -5.4581 H       1  <0>         0.0621
     48 H19        90.1997   23.7025   -6.0058 H       1  <0>         0.0643
     49 H20        94.0245   23.7676   -8.1442 H       1  <0>         0.0643
     50 H21        96.3133   22.1289   -1.6175 H       1  <0>         0.0643
     51 H22        98.0284   19.1090   -4.3168 H       1  <0>         0.0643
     52 H23        91.2875   17.3570   -5.3866 H       1  <0>         0.0269
     53 H24        91.3830   18.7980   -6.4852 H       1  <0>         0.0269
     54 H25       100.2968   21.2155   -0.6388 H       1  <0>         0.0837
     55 H26       101.5809   21.4445   -1.8674 H       1  <0>         0.0837
     56 H27        99.0284   22.6316   -2.7393 H       1  <0>         0.0619
     57 H28       100.0697   21.4219   -3.5699 H       1  <0>         0.0619
     58 H29        93.0967   19.8522   -5.0737 H       1  <0>         0.0358
     59 H30        92.4101   19.7795   -5.2688 H       1  <0>         0.0403
     60 H31       100.2468   23.7504   -1.8611 H       1  <0>         0.2028
     61 H32        92.4205   25.4002   -8.2129 H       1  <0>         0.2173
@<TRIPOS>BOND
     1     1    17    1
     2     2    27    1
     3     3    27    1
     4     4     5   ar
     5     4     6   ar
     6     5     7   ar
     7     6     8   ar
     8     7    20   ar
     9     8    20   ar
    10     9    13   ar
    11     9    21   ar
    12    10    14   ar
    13    10    21   ar
    14    11    15   ar
    15    11    22   ar
    16    12    16   ar
    17    12    22   ar
    18    13    23   ar
    19    14    23   ar
    20    15    24   ar
    21    16    24   ar
    22    17    25    1
    23    18    19    1
    24    18    27    1
    25    19    29    1
    26    20    25    1
    27    21    26    1
    28    22    26    1
    29    23    28    1
    30    24    29    1
    31    25    26    1
    32     1    30    1
    33     1    31    1
    34     1    32    1
    35     2    33    1
    36     2    34    1
    37     2    35    1
    38     3    36    1
    39     3    37    1
    40     3    38    1
    41     4    39    1
    42     5    40    1
    43     6    41    1
    44     7    42    1
    45     8    43    1
    46     9    44    1
    47    10    45    1
    48    11    46    1
    49    12    47    1
    50    13    48    1
    51    14    49    1
    52    15    50    1
    53    16    51    1
    54    17    52    1
    55    17    53    1
    56    18    54    1
    57    18    55    1
    58    19    56    1
    59    19    57    1
    60    25    58    1
    61    26    59    1
    62    27    60    1
    63    28    61    1
@<TRIPOS>SUBSTRUCTURE
     1 <0>         1 TEMP              0 ****  ****    0 ROOT

