
##########                                Name:        OHT_101_2FSZ
##########                    Molecular_Weight:             390.545
##########                DOCK_Rotatable_Bonds:                  10
##########                       Formal_Charge:              0.9997
##########                     HBond_Acceptors:                   3
##########                        HBond_Donors:                   2
##########                         Heavy_Atoms:                  29
##########                            HA_RMSDs:               0.537
##########                            HA_RMSDh:               0.537
##########                            HA_RMSDm:               0.534
##########                          Grid_Score:          -93.550629
##########                     Grid_vdw_energy:          -48.992611
##########                      Grid_es_energy:          -44.558022
##########           Internal_energy_repulsive:            9.826764

@<TRIPOS>MOLECULE
OHT_101_2FSZ
 61 63 1 0 0
SMALL
USER_CHARGES


@<TRIPOS>ATOM
      1 C1         89.9106   18.8524   -5.1296 C.3     1  <0>        -0.0647
      2 C2        102.2126   23.6058   -1.3588 C.3     1  <0>        -0.0433
      3 C3        100.4582   22.7859    0.0116 C.3     1  <0>        -0.0433
      4 C4         93.5889   15.9331   -1.9050 C.ar    1  <0>        -0.0617
      5 C5         93.8020   15.7056   -3.3303 C.ar    1  <0>        -0.0615
      6 C6         93.0295   17.1746   -1.4066 C.ar    1  <0>        -0.0615
      7 C7         93.4487   16.7456   -4.2940 C.ar    1  <0>        -0.0583
      8 C8         92.6745   18.2108   -2.3540 C.ar    1  <0>        -0.0583
      9 C9         91.2837   22.4462   -4.6036 C.ar    1  <0>        -0.0555
     10 C10        92.9674   22.5694   -6.4325 C.ar    1  <0>        -0.0555
     11 C11        94.7628   21.5210   -3.0437 C.ar    1  <0>        -0.0555
     12 C12        95.6483   19.9228   -4.8062 C.ar    1  <0>        -0.0555
     13 C13        90.6988   23.6850   -5.0177 C.ar    1  <0>        -0.0317
     14 C14        92.3951   23.8207   -6.8701 C.ar    1  <0>        -0.0317
     15 C15        96.1048   21.6640   -2.5183 C.ar    1  <0>        -0.0314
     16 C16        96.9852   20.0705   -4.2755 C.ar    1  <0>        -0.0314
     17 C17        91.3297   18.5913   -5.6631 C.3     1  <0>        -0.0482
     18 C18       100.7478   21.9337   -2.2707 C.3     1  <0>        -0.0079
     19 C19        99.4372   22.0281   -3.0614 C.3     1  <0>         0.0940
     20 C20        92.8773   18.0112   -3.8035 C.ar    1  <0>        -0.0434
     21 C21        92.4297   21.8237   -5.2714 C.ar    1  <0>        -0.0392
     22 C22        94.5146   20.6395   -4.2032 C.ar    1  <0>        -0.0392
     23 C23        91.2646   24.3615   -6.1433 C.ar    1  <0>         0.0726
     24 C24        97.2261   20.9219   -3.1452 C.ar    1  <0>         0.0764
     25 C25        92.4771   19.1288   -4.7546 C.3     1  <0>        -0.0053
     26 C26        93.0759   20.4715   -4.7599 C.3     1  <0>         0.0160
     27 N1        100.8330   23.1020   -1.3745 N.4     1  <0>         0.2325
     28 O1         90.7213   25.5451   -6.5395 O.3     1  <0>        -0.3598
     29 O2         98.5649   20.9725   -2.6957 O.3     1  <0>        -0.3394
     30 H1         89.1723   18.4401   -5.8330 H       1  <0>         0.0230
     31 H2         89.7929   18.3681   -4.1490 H       1  <0>         0.0230
     32 H3         89.7521   19.9358   -5.0250 H       1  <0>         0.0230
     33 H4        102.5251   23.8526   -2.3842 H       1  <0>         0.0777
     34 H5        102.2662   24.5082   -0.7322 H       1  <0>         0.0777
     35 H6        102.8801   22.8339   -0.9480 H       1  <0>         0.0777
     36 H7         99.4266   22.4046    0.0352 H       1  <0>         0.0777
     37 H8        101.1407   22.0211    0.4105 H       1  <0>         0.0777
     38 H9        100.5268   23.6954    0.6264 H       1  <0>         0.0777
     39 H10        93.8547   15.1567   -1.2029 H       1  <0>         0.0618
     40 H11        94.2201   14.7704   -3.6723 H       1  <0>         0.0618
     41 H12        92.8802   17.3240   -0.3474 H       1  <0>         0.0618
     42 H13        93.6043   16.5883   -5.3510 H       1  <0>         0.0620
     43 H14        92.2568   19.1404   -1.9966 H       1  <0>         0.0620
     44 H15        90.8558   21.9414   -3.7501 H       1  <0>         0.0621
     45 H16        93.8133   22.1648   -6.9682 H       1  <0>         0.0621
     46 H17        93.9440   22.0582   -2.5883 H       1  <0>         0.0621
     47 H18        95.4803   19.2781   -5.6561 H       1  <0>         0.0621
     48 H19        89.8506   24.0990   -4.4926 H       1  <0>         0.0643
     49 H20        92.8021   24.3436   -7.7230 H       1  <0>         0.0643
     50 H21        96.2888   22.3093   -1.6720 H       1  <0>         0.0643
     51 H22        97.8064   19.5377   -4.7317 H       1  <0>         0.0643
     52 H23        91.4579   17.5028   -5.7567 H       1  <0>         0.0269
     53 H24        91.4166   19.0864   -6.6415 H       1  <0>         0.0269
     54 H25       100.7613   21.0066   -1.6787 H       1  <0>         0.0837
     55 H26       101.6026   21.9306   -2.9630 H       1  <0>         0.0837
     56 H27        98.9516   22.9906   -2.8428 H       1  <0>         0.0619
     57 H28        99.6578   21.9589   -4.1368 H       1  <0>         0.0619
     58 H29        92.8717   20.1284   -4.9890 H       1  <0>         0.0358
     59 H30        92.1164   20.0522   -5.0972 H       1  <0>         0.0403
     60 H31       100.1912   23.7822   -1.7286 H       1  <0>         0.2028
     61 H32        91.0478   25.7709   -7.4025 H       1  <0>         0.2173
@<TRIPOS>BOND
     1     1    17    1
     2     2    27    1
     3     3    27    1
     4     4     5   ar
     5     4     6   ar
     6     5     7   ar
     7     6     8   ar
     8     7    20   ar
     9     8    20   ar
    10     9    13   ar
    11     9    21   ar
    12    10    14   ar
    13    10    21   ar
    14    11    15   ar
    15    11    22   ar
    16    12    16   ar
    17    12    22   ar
    18    13    23   ar
    19    14    23   ar
    20    15    24   ar
    21    16    24   ar
    22    17    25    1
    23    18    19    1
    24    18    27    1
    25    19    29    1
    26    20    25    1
    27    21    26    1
    28    22    26    1
    29    23    28    1
    30    24    29    1
    31    25    26    1
    32     1    30    1
    33     1    31    1
    34     1    32    1
    35     2    33    1
    36     2    34    1
    37     2    35    1
    38     3    36    1
    39     3    37    1
    40     3    38    1
    41     4    39    1
    42     5    40    1
    43     6    41    1
    44     7    42    1
    45     8    43    1
    46     9    44    1
    47    10    45    1
    48    11    46    1
    49    12    47    1
    50    13    48    1
    51    14    49    1
    52    15    50    1
    53    16    51    1
    54    17    52    1
    55    17    53    1
    56    18    54    1
    57    18    55    1
    58    19    56    1
    59    19    57    1
    60    25    58    1
    61    26    59    1
    62    27    60    1
    63    28    61    1
@<TRIPOS>SUBSTRUCTURE
     1 <0>         1 TEMP              0 ****  ****    0 ROOT

