
##########                                Name:        OHT_101_2FSZ
##########                    Molecular_Weight:             390.545
##########                DOCK_Rotatable_Bonds:                  10
##########                       Formal_Charge:              0.9997
##########                     HBond_Acceptors:                   3
##########                        HBond_Donors:                   2
##########                         Heavy_Atoms:                  29
##########                            HA_RMSDs:               0.483
##########                            HA_RMSDh:               0.483
##########                            HA_RMSDm:               0.483
##########                          Grid_Score:          -88.554893
##########                     Grid_vdw_energy:          -45.419807
##########                      Grid_es_energy:          -43.135086
##########           Internal_energy_repulsive:           11.592189

@<TRIPOS>MOLECULE
OHT_101_2FSZ
 61 63 1 0 0
SMALL
USER_CHARGES


@<TRIPOS>ATOM
      1 C1         89.9159   18.8137   -5.0561 C.3     1  <0>        -0.0647
      2 C2        102.1082   23.5995   -1.2126 C.3     1  <0>        -0.0433
      3 C3        100.2836   23.2874    0.2712 C.3     1  <0>        -0.0433
      4 C4         93.5696   15.8982   -1.9121 C.ar    1  <0>        -0.0617
      5 C5         93.8562   15.6668   -3.3239 C.ar    1  <0>        -0.0615
      6 C6         92.9529   17.1269   -1.4511 C.ar    1  <0>        -0.0615
      7 C7         93.5200   16.6896   -4.3118 C.ar    1  <0>        -0.0583
      8 C8         92.6143   18.1460   -2.4228 C.ar    1  <0>        -0.0583
      9 C9         91.4331   22.3538   -5.2584 C.ar    1  <0>        -0.0555
     10 C10        93.4038   22.2779   -6.7766 C.ar    1  <0>        -0.0555
     11 C11        94.6886   21.5273   -3.1341 C.ar    1  <0>        -0.0555
     12 C12        95.6992   19.7132   -4.5943 C.ar    1  <0>        -0.0555
     13 C13        90.9625   23.5540   -5.8798 C.ar    1  <0>        -0.0317
     14 C14        92.9500   23.4882   -7.4202 C.ar    1  <0>        -0.0317
     15 C15        95.9645   21.6824   -2.4667 C.ar    1  <0>        -0.0314
     16 C16        96.9697   19.8737   -3.9229 C.ar    1  <0>        -0.0314
     17 C17        91.2947   18.5278   -5.6756 C.3     1  <0>        -0.0482
     18 C18       100.5485   21.8348   -1.6880 C.3     1  <0>        -0.0079
     19 C19        99.3680   21.8402   -2.6670 C.3     1  <0>         0.0940
     20 C20        92.8909   17.9420   -3.8594 C.ar    1  <0>        -0.0434
     21 C21        92.6568   21.6550   -5.6598 C.ar    1  <0>        -0.0392
     22 C22        94.5375   20.5308   -4.2144 C.ar    1  <0>        -0.0392
     23 C23        91.7292   24.1110   -6.9506 C.ar    1  <0>         0.0726
     24 C24        97.1157   20.8373   -2.8689 C.ar    1  <0>         0.0764
     25 C25        92.5052   19.0411   -4.8376 C.3     1  <0>        -0.0053
     26 C26        93.1680   20.3506   -4.9218 C.3     1  <0>         0.0160
     27 N1        100.6984   23.1943   -1.1362 N.4     1  <0>         0.2325
     28 O1         91.2950   25.2575   -7.5422 O.3     1  <0>        -0.3598
     29 O2         98.3931   20.8923   -2.2671 O.3     1  <0>        -0.3394
     30 H1         89.1285   18.4174   -5.7141 H       1  <0>         0.0230
     31 H2         89.8490   18.3286   -4.0712 H       1  <0>         0.0230
     32 H3         89.7843   19.8995   -4.9400 H       1  <0>         0.0230
     33 H4        102.4511   23.5410   -2.2562 H       1  <0>         0.0777
     34 H5        102.2128   24.6327   -0.8500 H       1  <0>         0.0777
     35 H6        102.7168   22.9284   -0.5887 H       1  <0>         0.0777
     36 H7         99.2287   22.9896    0.3636 H       1  <0>         0.0777
     37 H8        100.9079   22.6190    0.8823 H       1  <0>         0.0777
     38 H9        100.4039   24.3233    0.6211 H       1  <0>         0.0777
     39 H10        93.8234   15.1346   -1.1919 H       1  <0>         0.0618
     40 H11        94.3160   14.7414   -3.6380 H       1  <0>         0.0618
     41 H12        92.7495   17.2794   -0.4014 H       1  <0>         0.0618
     42 H13        93.7298   16.5294   -5.3590 H       1  <0>         0.0620
     43 H14        92.1544   19.0659   -2.0933 H       1  <0>         0.0620
     44 H15        90.8530   21.9394   -4.4470 H       1  <0>         0.0621
     45 H16        94.3159   21.8127   -7.1201 H       1  <0>         0.0621
     46 H17        93.8481   22.1395   -2.8422 H       1  <0>         0.0621
     47 H18        95.6023   18.9836   -5.3846 H       1  <0>         0.0621
     48 H19        90.0503   24.0276   -5.5480 H       1  <0>         0.0643
     49 H20        93.5099   23.9208   -8.2361 H       1  <0>         0.0643
     50 H21        96.0778   22.4115   -1.6781 H       1  <0>         0.0643
     51 H22        97.8130   19.2657   -4.2157 H       1  <0>         0.0643
     52 H23        91.3965   17.4374   -5.7790 H       1  <0>         0.0269
     53 H24        91.3312   19.0242   -6.6565 H       1  <0>         0.0269
     54 H25       100.3561   21.1201   -0.8742 H       1  <0>         0.0837
     55 H26       101.4689   21.5412   -2.2140 H       1  <0>         0.0837
     56 H27        98.9141   22.8420   -2.6806 H       1  <0>         0.0619
     57 H28        99.7312   21.5830   -3.6729 H       1  <0>         0.0619
     58 H29        92.9377   20.0098   -5.1282 H       1  <0>         0.0358
     59 H30        92.2351   19.9297   -5.3250 H       1  <0>         0.0403
     60 H31       100.1086   23.7910   -1.6802 H       1  <0>         0.2028
     61 H32        91.8471   25.4579   -8.2888 H       1  <0>         0.2173
@<TRIPOS>BOND
     1     1    17    1
     2     2    27    1
     3     3    27    1
     4     4     5   ar
     5     4     6   ar
     6     5     7   ar
     7     6     8   ar
     8     7    20   ar
     9     8    20   ar
    10     9    13   ar
    11     9    21   ar
    12    10    14   ar
    13    10    21   ar
    14    11    15   ar
    15    11    22   ar
    16    12    16   ar
    17    12    22   ar
    18    13    23   ar
    19    14    23   ar
    20    15    24   ar
    21    16    24   ar
    22    17    25    1
    23    18    19    1
    24    18    27    1
    25    19    29    1
    26    20    25    1
    27    21    26    1
    28    22    26    1
    29    23    28    1
    30    24    29    1
    31    25    26    1
    32     1    30    1
    33     1    31    1
    34     1    32    1
    35     2    33    1
    36     2    34    1
    37     2    35    1
    38     3    36    1
    39     3    37    1
    40     3    38    1
    41     4    39    1
    42     5    40    1
    43     6    41    1
    44     7    42    1
    45     8    43    1
    46     9    44    1
    47    10    45    1
    48    11    46    1
    49    12    47    1
    50    13    48    1
    51    14    49    1
    52    15    50    1
    53    16    51    1
    54    17    52    1
    55    17    53    1
    56    18    54    1
    57    18    55    1
    58    19    56    1
    59    19    57    1
    60    25    58    1
    61    26    59    1
    62    27    60    1
    63    28    61    1
@<TRIPOS>SUBSTRUCTURE
     1 <0>         1 TEMP              0 ****  ****    0 ROOT

