
##########                                Name:        OHT_101_2FSZ
##########                    Molecular_Weight:             390.545
##########                DOCK_Rotatable_Bonds:                  10
##########                       Formal_Charge:              0.9997
##########                     HBond_Acceptors:                   3
##########                        HBond_Donors:                   2
##########                         Heavy_Atoms:                  29
##########                            HA_RMSDs:               0.477
##########                            HA_RMSDh:               0.477
##########                            HA_RMSDm:               0.477
##########                          Grid_Score:          -91.350662
##########                     Grid_vdw_energy:          -47.849190
##########                      Grid_es_energy:          -43.501472
##########           Internal_energy_repulsive:           14.022248

@<TRIPOS>MOLECULE
OHT_101_2FSZ
 61 63 1 0 0
SMALL
USER_CHARGES


@<TRIPOS>ATOM
      1 C1         90.0032   19.3411   -5.1591 C.3     1  <0>        -0.0647
      2 C2        102.6988   23.2750   -1.6527 C.3     1  <0>        -0.0433
      3 C3        100.9697   23.4080   -0.0337 C.3     1  <0>        -0.0433
      4 C4         93.6174   16.2020   -1.7217 C.ar    1  <0>        -0.0617
      5 C5         93.6932   15.8343   -3.1316 C.ar    1  <0>        -0.0615
      6 C6         93.2170   17.5307   -1.3011 C.ar    1  <0>        -0.0615
      7 C7         93.3611   16.8186   -4.1592 C.ar    1  <0>        -0.0583
      8 C8         92.8842   18.5128   -2.3121 C.ar    1  <0>        -0.0583
      9 C9         91.5242   22.4948   -5.3708 C.ar    1  <0>        -0.0555
     10 C10        93.5800   22.4381   -6.7727 C.ar    1  <0>        -0.0555
     11 C11        94.8591   21.7696   -3.2286 C.ar    1  <0>        -0.0555
     12 C12        95.7780   19.8102   -4.5556 C.ar    1  <0>        -0.0555
     13 C13        91.0691   23.6791   -6.0327 C.ar    1  <0>        -0.0317
     14 C14        93.1426   23.6326   -7.4559 C.ar    1  <0>        -0.0317
     15 C15        96.1475   21.9203   -2.5844 C.ar    1  <0>        -0.0314
     16 C16        97.0611   19.9667   -3.9077 C.ar    1  <0>        -0.0314
     17 C17        91.3491   18.7202   -5.5711 C.3     1  <0>        -0.0482
     18 C18       100.7914   21.8366   -1.9094 C.3     1  <0>        -0.0079
     19 C19        99.5014   22.0205   -2.7181 C.3     1  <0>         0.0940
     20 C20        92.9503   18.1717   -3.7478 C.ar    1  <0>        -0.0434
     21 C21        92.7811   21.8141   -5.6930 C.ar    1  <0>        -0.0392
     22 C22        94.6553   20.7022   -4.2296 C.ar    1  <0>        -0.0392
     23 C23        91.8861   24.2382   -7.0646 C.ar    1  <0>         0.0726
     24 C24        97.2582   20.9996   -2.9305 C.ar    1  <0>         0.0764
     25 C25        92.5799   19.2386   -4.7666 C.3     1  <0>        -0.0053
     26 C26        93.2720   20.5276   -4.9111 C.3     1  <0>         0.0160
     27 N1        101.2473   23.1643   -1.4568 N.4     1  <0>         0.2325
     28 O1         91.4664   25.3699   -7.6940 O.3     1  <0>        -0.3598
     29 O2         98.5431   21.0455   -2.3441 O.3     1  <0>        -0.3394
     30 H1         89.1985   18.9170   -5.7776 H       1  <0>         0.0230
     31 H2         89.8065   19.1198   -4.0997 H       1  <0>         0.0230
     32 H3         90.0423   20.4306   -5.3051 H       1  <0>         0.0230
     33 H4        102.9411   23.0975   -2.7109 H       1  <0>         0.0777
     34 H5        103.0316   24.2831   -1.3647 H       1  <0>         0.0777
     35 H6        103.2109   22.5275   -1.0290 H       1  <0>         0.0777
     36 H7         99.8874   23.3321    0.1475 H       1  <0>         0.0777
     37 H8        101.4967   22.6593    0.5759 H       1  <0>         0.0777
     38 H9        101.3175   24.4149    0.2404 H       1  <0>         0.0777
     39 H10        93.8659   15.4655   -0.9719 H       1  <0>         0.0618
     40 H11        93.9943   14.8366   -3.4151 H       1  <0>         0.0618
     41 H12        93.1678   17.7835   -0.2522 H       1  <0>         0.0618
     42 H13        93.4160   16.5575   -5.2057 H       1  <0>         0.0620
     43 H14        92.5842   19.5062   -2.0128 H       1  <0>         0.0620
     44 H15        90.9059   22.0789   -4.5890 H       1  <0>         0.0621
     45 H16        94.5184   21.9859   -7.0578 H       1  <0>         0.0621
     46 H17        94.0480   22.4370   -2.9774 H       1  <0>         0.0621
     47 H18        95.6424   19.0282   -5.2880 H       1  <0>         0.0621
     48 H19        90.1311   24.1396   -5.7595 H       1  <0>         0.0643
     49 H20        93.7408   24.0662   -8.2436 H       1  <0>         0.0643
     50 H21        96.2994   22.7010   -1.8538 H       1  <0>         0.0643
     51 H22        97.8752   19.3034   -4.1603 H       1  <0>         0.0643
     52 H23        91.2793   17.6337   -5.4143 H       1  <0>         0.0269
     53 H24        91.5173   18.9578   -6.6318 H       1  <0>         0.0269
     54 H25       100.5986   21.1911   -1.0398 H       1  <0>         0.0837
     55 H26       101.5639   21.3706   -2.5387 H       1  <0>         0.0837
     56 H27        99.0924   23.0229   -2.5234 H       1  <0>         0.0619
     57 H28        99.7276   21.9130   -3.7892 H       1  <0>         0.0619
     58 H29        93.0317   20.1841   -5.1011 H       1  <0>         0.0358
     59 H30        92.3239   20.1138   -5.2850 H       1  <0>         0.0403
     60 H31       100.7451   23.8393   -1.9974 H       1  <0>         0.2028
     61 H32        92.0806   25.5962   -8.3825 H       1  <0>         0.2173
@<TRIPOS>BOND
     1     1    17    1
     2     2    27    1
     3     3    27    1
     4     4     5   ar
     5     4     6   ar
     6     5     7   ar
     7     6     8   ar
     8     7    20   ar
     9     8    20   ar
    10     9    13   ar
    11     9    21   ar
    12    10    14   ar
    13    10    21   ar
    14    11    15   ar
    15    11    22   ar
    16    12    16   ar
    17    12    22   ar
    18    13    23   ar
    19    14    23   ar
    20    15    24   ar
    21    16    24   ar
    22    17    25    1
    23    18    19    1
    24    18    27    1
    25    19    29    1
    26    20    25    1
    27    21    26    1
    28    22    26    1
    29    23    28    1
    30    24    29    1
    31    25    26    1
    32     1    30    1
    33     1    31    1
    34     1    32    1
    35     2    33    1
    36     2    34    1
    37     2    35    1
    38     3    36    1
    39     3    37    1
    40     3    38    1
    41     4    39    1
    42     5    40    1
    43     6    41    1
    44     7    42    1
    45     8    43    1
    46     9    44    1
    47    10    45    1
    48    11    46    1
    49    12    47    1
    50    13    48    1
    51    14    49    1
    52    15    50    1
    53    16    51    1
    54    17    52    1
    55    17    53    1
    56    18    54    1
    57    18    55    1
    58    19    56    1
    59    19    57    1
    60    25    58    1
    61    26    59    1
    62    27    60    1
    63    28    61    1
@<TRIPOS>SUBSTRUCTURE
     1 <0>         1 TEMP              0 ****  ****    0 ROOT

