
##########                                Name:        OHT_101_2FSZ
##########                    Molecular_Weight:             390.545
##########                DOCK_Rotatable_Bonds:                  10
##########                       Formal_Charge:              0.9997
##########                     HBond_Acceptors:                   3
##########                        HBond_Donors:                   2
##########                         Heavy_Atoms:                  29
##########                            HA_RMSDs:               0.580
##########                            HA_RMSDh:               0.580
##########                            HA_RMSDm:               0.580
##########                          Grid_Score:          -88.889725
##########                     Grid_vdw_energy:          -43.114071
##########                      Grid_es_energy:          -45.775650
##########           Internal_energy_repulsive:           13.253942

@<TRIPOS>MOLECULE
OHT_101_2FSZ
 61 63 1 0 0
SMALL
USER_CHARGES


@<TRIPOS>ATOM
      1 C1         89.8918   19.2488   -4.8287 C.3     1  <0>        -0.0647
      2 C2        101.9439   23.8133   -0.9596 C.3     1  <0>        -0.0433
      3 C3         99.6122   24.0102   -0.5692 C.3     1  <0>        -0.0433
      4 C4         93.6178   15.9216   -1.8712 C.ar    1  <0>        -0.0617
      5 C5         94.1358   15.8861   -3.2347 C.ar    1  <0>        -0.0615
      6 C6         92.7536   16.9916   -1.4120 C.ar    1  <0>        -0.0615
      7 C7         93.7848   16.9486   -4.1744 C.ar    1  <0>        -0.0583
      8 C8         92.3987   18.0484   -2.3364 C.ar    1  <0>        -0.0583
      9 C9         91.5769   22.5618   -5.0640 C.ar    1  <0>        -0.0555
     10 C10        93.4214   22.2914   -6.7131 C.ar    1  <0>        -0.0555
     11 C11        94.8311   21.7501   -3.1695 C.ar    1  <0>        -0.0555
     12 C12        95.6406   19.6166   -4.2818 C.ar    1  <0>        -0.0555
     13 C13        91.1427   23.7670   -5.7018 C.ar    1  <0>        -0.0317
     14 C14        93.0029   23.5047   -7.3746 C.ar    1  <0>        -0.0317
     15 C15        96.1148   21.8782   -2.5113 C.ar    1  <0>        -0.0314
     16 C16        96.9194   19.7512   -3.6207 C.ar    1  <0>        -0.0314
     17 C17        91.2100   18.7146   -5.4146 C.3     1  <0>        -0.0482
     18 C18       100.5313   21.9691   -1.5733 C.3     1  <0>        -0.0079
     19 C19        99.5195   21.6216   -2.6721 C.3     1  <0>         0.0940
     20 C20        92.9061   18.0410   -3.7236 C.ar    1  <0>        -0.0434
     21 C21        92.7187   21.7650   -5.5205 C.ar    1  <0>        -0.0392
     22 C22        94.5744   20.6068   -4.0695 C.ar    1  <0>        -0.0392
     23 C23        91.8639   24.2282   -6.8472 C.ar    1  <0>         0.0726
     24 C24        97.1675   20.8584   -2.7413 C.ar    1  <0>         0.0764
     25 C25        92.4932   19.1703   -4.6551 C.3     1  <0>        -0.0053
     26 C26        93.1951   20.4575   -4.7648 C.3     1  <0>         0.0160
     27 N1        100.6202   23.4380   -1.4737 N.4     1  <0>         0.2325
     28 O1         91.4645   25.3786   -7.4555 O.3     1  <0>        -0.3598
     29 O2         98.4418   20.8771   -2.1307 O.3     1  <0>        -0.3394
     30 H1         89.0468   18.8769   -5.4267 H       1  <0>         0.0230
     31 H2         89.7857   18.9032   -3.7898 H       1  <0>         0.0230
     32 H3         89.9001   20.3485   -4.8504 H       1  <0>         0.0230
     33 H4        102.7236   23.3994   -1.6160 H       1  <0>         0.0777
     34 H5        102.0301   24.9096   -0.9346 H       1  <0>         0.0777
     35 H6        102.0696   23.4121    0.0569 H       1  <0>         0.0777
     36 H7         98.6059   23.7467   -0.9270 H       1  <0>         0.0777
     37 H8         99.7580   23.6074    0.4439 H       1  <0>         0.0777
     38 H9         99.7184   25.1049   -0.5475 H       1  <0>         0.0777
     39 H10        93.8850   15.1306   -1.1863 H       1  <0>         0.0618
     40 H11        94.7774   15.0760   -3.5488 H       1  <0>         0.0618
     41 H12        92.3810   17.0002   -0.3983 H       1  <0>         0.0618
     42 H13        94.1646   16.9331   -5.1853 H       1  <0>         0.0620
     43 H14        91.7556   18.8514   -2.0076 H       1  <0>         0.0620
     44 H15        91.0318   22.2199   -4.1966 H       1  <0>         0.0621
     45 H16        94.2729   21.7513   -7.0999 H       1  <0>         0.0621
     46 H17        94.0620   22.4898   -3.0026 H       1  <0>         0.0621
     47 H18        95.4662   18.7782   -4.9398 H       1  <0>         0.0621
     48 H19        90.2908   24.3151   -5.3271 H       1  <0>         0.0643
     49 H20        93.5288   23.8660   -8.2460 H       1  <0>         0.0643
     50 H21        96.3053   22.7141   -1.8546 H       1  <0>         0.0643
     51 H22        97.6917   19.0153   -3.7892 H       1  <0>         0.0643
     52 H23        91.1719   17.6158   -5.3794 H       1  <0>         0.0269
     53 H24        91.2874   19.0758   -6.4507 H       1  <0>         0.0269
     54 H25       100.1990   21.5487   -0.6126 H       1  <0>         0.0837
     55 H26       101.5168   21.5514   -1.8268 H       1  <0>         0.0837
     56 H27        99.1312   22.5513   -3.1133 H       1  <0>         0.0619
     57 H28       100.0193   21.0226   -3.4476 H       1  <0>         0.0619
     58 H29        92.9390   20.1286   -4.9600 H       1  <0>         0.0358
     59 H30        92.2470   20.0589   -5.1551 H       1  <0>         0.0403
     60 H31       100.4611   23.7977   -2.3930 H       1  <0>         0.2028
     61 H32        92.1694   25.7116   -7.9983 H       1  <0>         0.2173
@<TRIPOS>BOND
     1     1    17    1
     2     2    27    1
     3     3    27    1
     4     4     5   ar
     5     4     6   ar
     6     5     7   ar
     7     6     8   ar
     8     7    20   ar
     9     8    20   ar
    10     9    13   ar
    11     9    21   ar
    12    10    14   ar
    13    10    21   ar
    14    11    15   ar
    15    11    22   ar
    16    12    16   ar
    17    12    22   ar
    18    13    23   ar
    19    14    23   ar
    20    15    24   ar
    21    16    24   ar
    22    17    25    1
    23    18    19    1
    24    18    27    1
    25    19    29    1
    26    20    25    1
    27    21    26    1
    28    22    26    1
    29    23    28    1
    30    24    29    1
    31    25    26    1
    32     1    30    1
    33     1    31    1
    34     1    32    1
    35     2    33    1
    36     2    34    1
    37     2    35    1
    38     3    36    1
    39     3    37    1
    40     3    38    1
    41     4    39    1
    42     5    40    1
    43     6    41    1
    44     7    42    1
    45     8    43    1
    46     9    44    1
    47    10    45    1
    48    11    46    1
    49    12    47    1
    50    13    48    1
    51    14    49    1
    52    15    50    1
    53    16    51    1
    54    17    52    1
    55    17    53    1
    56    18    54    1
    57    18    55    1
    58    19    56    1
    59    19    57    1
    60    25    58    1
    61    26    59    1
    62    27    60    1
    63    28    61    1
@<TRIPOS>SUBSTRUCTURE
     1 <0>         1 TEMP              0 ****  ****    0 ROOT

