
##########                                Name:        OHT_101_2FSZ
##########                    Molecular_Weight:             390.545
##########                DOCK_Rotatable_Bonds:                  10
##########                       Formal_Charge:              0.9997
##########                     HBond_Acceptors:                   3
##########                        HBond_Donors:                   2
##########                         Heavy_Atoms:                  29
##########                            HA_RMSDs:              14.723
##########                            HA_RMSDh:              13.512
##########                            HA_RMSDm:              11.771
##########                          Grid_Score:          -88.606270
##########                     Grid_vdw_energy:          -25.726282
##########                      Grid_es_energy:          -62.879986
##########           Internal_energy_repulsive:            9.687994

@<TRIPOS>MOLECULE
OHT_101_2FSZ
 61 63 1 0 0
SMALL
USER_CHARGES


@<TRIPOS>ATOM
      1 C1        105.5467   22.3058    5.5714 C.3     1  <0>        -0.0647
      2 C2         92.3482   24.8073    8.9946 C.3     1  <0>        -0.0433
      3 C3         92.6036   23.8995    6.8176 C.3     1  <0>        -0.0433
      4 C4        101.3981   18.6238    4.8092 C.ar    1  <0>        -0.0617
      5 C5        101.8040   18.6048    6.2105 C.ar    1  <0>        -0.0615
      6 C6        101.5467   19.8102    3.9888 C.ar    1  <0>        -0.0615
      7 C7        102.3763   19.8039    6.8187 C.ar    1  <0>        -0.0583
      8 C8        102.1145   21.0031    4.5820 C.ar    1  <0>        -0.0583
      9 C9        103.5617   25.6919    5.7780 C.ar    1  <0>        -0.0555
     10 C10       102.8325   25.8107    8.1547 C.ar    1  <0>        -0.0555
     11 C11        99.9399   23.7609    5.8707 C.ar    1  <0>        -0.0555
     12 C12       100.2574   23.0014    8.2721 C.ar    1  <0>        -0.0555
     13 C13       104.0444   27.0382    5.8273 C.ar    1  <0>        -0.0317
     14 C14       103.3120   27.1706    8.2300 C.ar    1  <0>        -0.0317
     15 C15        98.5056   23.6537    6.0405 C.ar    1  <0>        -0.0314
     16 C16        98.8244   22.8965    8.4336 C.ar    1  <0>        -0.0314
     17 C17       104.6567   22.0412    6.7980 C.3     1  <0>        -0.0482
     18 C18        94.3910   23.6519    8.4798 C.3     1  <0>        -0.0079
     19 C19        95.7375   24.1483    7.9389 C.3     1  <0>         0.0940
     20 C20       102.5359   21.0160    5.9977 C.ar    1  <0>        -0.0434
     21 C21       102.9395   25.0081    6.9147 C.ar    1  <0>        -0.0392
     22 C22       100.8423   23.4314    6.9933 C.ar    1  <0>        -0.0392
     23 C23       103.9093   27.7647    7.0515 C.ar    1  <0>         0.0726
     24 C24        97.9472   23.2104    7.3415 C.ar    1  <0>         0.0764
     25 C25       103.1356   22.2929    6.5665 C.3     1  <0>        -0.0053
     26 C26       102.3802   23.5302    6.8111 C.3     1  <0>         0.0160
     27 N1         93.3270   24.5179    7.9383 N.4     1  <0>         0.2325
     28 O1        104.3568   29.0491    7.1059 O.3     1  <0>        -0.3598
     29 O2         96.5678   23.0498    7.6032 O.3     1  <0>        -0.3394
     30 H1        106.5966   22.1025    5.8288 H       1  <0>         0.0230
     31 H2        105.2378   21.6480    4.7457 H       1  <0>         0.0230
     32 H3        105.4419   23.3562    5.2624 H       1  <0>         0.0230
     33 H4         92.8587   25.2724    9.8509 H       1  <0>         0.0777
     34 H5         91.5828   25.4954    8.6065 H       1  <0>         0.0777
     35 H6         91.8698   23.8709    9.3176 H       1  <0>         0.0777
     36 H7         93.3102   23.6694    6.0067 H       1  <0>         0.0777
     37 H8         92.1230   22.9710    7.1594 H       1  <0>         0.0777
     38 H9         91.8359   24.5954    6.4483 H       1  <0>         0.0777
     39 H10       100.9761   17.7312    4.3716 H       1  <0>         0.0618
     40 H11       101.6816   17.7062    6.7970 H       1  <0>         0.0618
     41 H12       101.2395   19.8043    2.9534 H       1  <0>         0.0618
     42 H13       102.6780   19.8012    7.8557 H       1  <0>         0.0620
     43 H14       102.2311   21.8938    3.9824 H       1  <0>         0.0620
     44 H15       103.6619   25.1488    4.8498 H       1  <0>         0.0621
     45 H16       102.3821   25.3652    9.0294 H       1  <0>         0.0621
     46 H17       100.3496   24.0814    4.9242 H       1  <0>         0.0621
     47 H18       100.9064   22.7609    9.1012 H       1  <0>         0.0621
     48 H19       104.4997   27.4946    4.9607 H       1  <0>         0.0643
     49 H20       103.2270   27.7340    9.1475 H       1  <0>         0.0643
     50 H21        97.8441   23.8959    5.2219 H       1  <0>         0.0643
     51 H22        98.4119   22.5804    9.3804 H       1  <0>         0.0643
     52 H23       104.7827   20.9861    7.0825 H       1  <0>         0.0269
     53 H24       104.9888   22.7116    7.6043 H       1  <0>         0.0269
     54 H25        94.2224   22.6113    8.1652 H       1  <0>         0.0837
     55 H26        94.3890   23.6999    9.5787 H       1  <0>         0.0837
     56 H27        95.5634   24.7580    7.0401 H       1  <0>         0.0619
     57 H28        96.2350   24.7555    8.7094 H       1  <0>         0.0619
     58 H29       102.7292   23.2514    6.9217 H       1  <0>         0.0358
     59 H30       103.4443   23.2900    6.6693 H       1  <0>         0.0403
     60 H31        93.7745   25.3483    7.6065 H       1  <0>         0.2028
     61 H32       104.1163   29.4337    7.9406 H       1  <0>         0.2173
@<TRIPOS>BOND
     1     1    17    1
     2     2    27    1
     3     3    27    1
     4     4     5   ar
     5     4     6   ar
     6     5     7   ar
     7     6     8   ar
     8     7    20   ar
     9     8    20   ar
    10     9    13   ar
    11     9    21   ar
    12    10    14   ar
    13    10    21   ar
    14    11    15   ar
    15    11    22   ar
    16    12    16   ar
    17    12    22   ar
    18    13    23   ar
    19    14    23   ar
    20    15    24   ar
    21    16    24   ar
    22    17    25    1
    23    18    19    1
    24    18    27    1
    25    19    29    1
    26    20    25    1
    27    21    26    1
    28    22    26    1
    29    23    28    1
    30    24    29    1
    31    25    26    1
    32     1    30    1
    33     1    31    1
    34     1    32    1
    35     2    33    1
    36     2    34    1
    37     2    35    1
    38     3    36    1
    39     3    37    1
    40     3    38    1
    41     4    39    1
    42     5    40    1
    43     6    41    1
    44     7    42    1
    45     8    43    1
    46     9    44    1
    47    10    45    1
    48    11    46    1
    49    12    47    1
    50    13    48    1
    51    14    49    1
    52    15    50    1
    53    16    51    1
    54    17    52    1
    55    17    53    1
    56    18    54    1
    57    18    55    1
    58    19    56    1
    59    19    57    1
    60    25    58    1
    61    26    59    1
    62    27    60    1
    63    28    61    1
@<TRIPOS>SUBSTRUCTURE
     1 <0>         1 TEMP              0 ****  ****    0 ROOT

