
##########                                Name:          K30_1_3CJO
##########                    Molecular_Weight:             462.535
##########                DOCK_Rotatable_Bonds:                   7
##########                       Formal_Charge:              0.9998
##########                     HBond_Acceptors:                   8
##########                        HBond_Donors:                   2
##########                         Heavy_Atoms:                  33
##########                            HA_RMSDs:               9.825
##########                            HA_RMSDh:               8.814
##########                            HA_RMSDm:               7.922
##########                          Grid_Score:          -91.112938
##########                     Grid_vdw_energy:          -36.204914
##########                      Grid_es_energy:          -54.908024
##########           Internal_energy_repulsive:           33.002216

@<TRIPOS>MOLECULE
K30_1_3CJO
 64 67 1 0 0
SMALL
USER_CHARGES


@<TRIPOS>ATOM
      1 C1         18.3610   15.8726  109.6904 C.3     1  <0>        -0.0430
      2 C2         13.8058   15.4022  105.1836 C.3     1  <0>         0.0050
      3 C3         14.3214   18.2360   99.4002 C.ar    1  <0>        -0.0617
      4 C4         13.6164   17.7329  100.4978 C.ar    1  <0>        -0.0614
      5 C5         15.4179   17.5237   98.9725 C.ar    1  <0>        -0.0614
      6 C6         14.0663   16.4860  101.0604 C.ar    1  <0>        -0.0565
      7 C7         15.8824   16.2875   99.5909 C.ar    1  <0>        -0.0565
      8 C8         11.5010    9.1243  101.9017 C.ar    1  <0>        -0.0237
      9 C9         11.2042   10.1201  100.9743 C.ar    1  <0>        -0.0235
     10 C10        13.3321   10.4631  102.7894 C.ar    1  <0>        -0.0202
     11 C11        15.3440   16.3347  107.2162 C.3     1  <0>         0.0090
     12 C12        16.3712   16.6624  108.3192 C.3     1  <0>        -0.0302
     13 C13        14.4759   13.3852  100.8269 C.3     1  <0>        -0.0167
     14 C14        18.1509   15.2170  107.2990 C.3     1  <0>         0.0015
     15 C15        14.4729   13.0118  103.1103 C.3     1  <0>         0.0241
     16 C16        17.0701   14.0436  101.5294 C.3     1  <0>         0.0698
     17 C17        15.1865   15.7262  100.6365 C.ar    1  <0>        -0.0217
     18 C18        12.5727    9.3108  102.7997 C.ar    1  <0>         0.1238
     19 C19        12.0065   11.2807  100.8918 C.ar    1  <0>         0.1270
     20 C20        13.0731   11.4841  101.7886 C.ar    1  <0>        -0.0048
     21 C21        16.1244   15.7990  105.9792 C.3     1  <0>         0.0680
     22 C22        13.9693   12.5971  101.7939 C.3     1  <0>         0.0051
     23 C23        17.0904   14.6631  106.3492 C.3     1  <0>         0.1588
     24 C24        15.6192   15.3262  103.6408 C.2     1  <0>         0.3056
     25 C25        15.5756   14.3360  101.3716 C.3     1  <0>         0.0875
     26 N1         17.3820   15.5340  108.5628 N.4     1  <0>         0.2352
     27 N2         15.1541   14.2865  102.8126 N.am    1  <0>        -0.2729
     28 N3         15.2216   15.4253  104.9335 N.am    1  <0>        -0.2823
     29 O1         17.5218   13.1510  100.5686 O.3     1  <0>        -0.3926
     30 O2         16.5221   16.1312  103.2215 O.2     1  <0>        -0.2524
     31 F1         12.7964    8.3740  103.7031 F       1  <0>        -0.2055
     32 F2         11.6507   12.1407   99.9427 F       1  <0>        -0.2052
     33 F3         16.3895   13.7324  107.0482 F       1  <0>        -0.2380
     34 H1         19.0642   15.0382  109.8291 H       1  <0>         0.0778
     35 H2         18.9199   16.7833  109.4294 H       1  <0>         0.0778
     36 H3         17.8022   16.0398  110.6230 H       1  <0>         0.0778
     37 H4         13.2765   15.0936  104.2700 H       1  <0>         0.0429
     38 H5         13.5880   14.6887  105.9921 H       1  <0>         0.0429
     39 H6         13.4696   16.4066  105.4804 H       1  <0>         0.0429
     40 H7         14.0172   19.1478   98.9077 H       1  <0>         0.0618
     41 H8         12.7671   18.2591  100.9080 H       1  <0>         0.0618
     42 H9         15.9693   17.9039   98.1254 H       1  <0>         0.0618
     43 H10        13.4943   16.0903  101.8866 H       1  <0>         0.0621
     44 H11        16.7792   15.8093   99.2254 H       1  <0>         0.0621
     45 H12        10.9156    8.2173  101.9331 H       1  <0>         0.0647
     46 H13        10.3567   10.0049  100.3150 H       1  <0>         0.0647
     47 H14        14.1141   10.6051  103.5206 H       1  <0>         0.0650
     48 H15        14.6376   15.5715  107.5746 H       1  <0>         0.0336
     49 H16        14.7827   17.2406  106.9436 H       1  <0>         0.0336
     50 H17        16.9268   17.5617  108.0151 H       1  <0>         0.0815
     51 H18        15.8238   16.8417  109.2564 H       1  <0>         0.0815
     52 H19        14.9170   12.7468  100.0473 H       1  <0>         0.0296
     53 H20        13.6617   13.9932  100.4057 H       1  <0>         0.0296
     54 H21        18.9438   14.4784  107.4878 H       1  <0>         0.0843
     55 H22        18.6280   16.1174  106.8846 H       1  <0>         0.0843
     56 H23        13.6568   13.1453  103.8357 H       1  <0>         0.0471
     57 H24        15.1644   12.2693  103.5350 H       1  <0>         0.0471
     58 H25        17.6274   14.9863  101.4260 H       1  <0>         0.0582
     59 H26        17.2419   13.6083  102.5248 H       1  <0>         0.0582
     60 H27        16.7523   16.6185  105.5994 H       1  <0>         0.0533
     61 H28        13.5018   12.1447  100.9068 H       1  <0>         0.0366
     62 H29        17.5469   14.2406  105.4419 H       1  <0>         0.0724
     63 H30        16.8560   14.7301  108.8402 H       1  <0>         0.2031
     64 H31        18.0834   12.5026  100.9771 H       1  <0>         0.2095
@<TRIPOS>BOND
     1     1    26    1
     2     2    28    1
     3     3     4   ar
     4     3     5   ar
     5     4     6   ar
     6     5     7   ar
     7     6    17   ar
     8     7    17   ar
     9     8     9   ar
    10     8    18   ar
    11     9    19   ar
    12    10    18   ar
    13    10    20   ar
    14    11    12    1
    15    11    21    1
    16    12    26    1
    17    13    22    1
    18    13    25    1
    19    14    23    1
    20    14    26    1
    21    15    22    1
    22    15    27    1
    23    16    25    1
    24    16    29    1
    25    17    25    1
    26    18    31    1
    27    19    20   ar
    28    19    32    1
    29    20    22    1
    30    21    23    1
    31    21    28    1
    32    23    33    1
    33    24    27   am
    34    24    28   am
    35    24    30    2
    36    25    27    1
    37     1    34    1
    38     1    35    1
    39     1    36    1
    40     2    37    1
    41     2    38    1
    42     2    39    1
    43     3    40    1
    44     4    41    1
    45     5    42    1
    46     6    43    1
    47     7    44    1
    48     8    45    1
    49     9    46    1
    50    10    47    1
    51    11    48    1
    52    11    49    1
    53    12    50    1
    54    12    51    1
    55    13    52    1
    56    13    53    1
    57    14    54    1
    58    14    55    1
    59    15    56    1
    60    15    57    1
    61    16    58    1
    62    16    59    1
    63    21    60    1
    64    22    61    1
    65    23    62    1
    66    26    63    1
    67    29    64    1
@<TRIPOS>SUBSTRUCTURE
     1 <0>         1 TEMP              0 ****  ****    0 ROOT

