
##########                                Name:          K30_1_3CJO
##########                    Molecular_Weight:             462.535
##########                DOCK_Rotatable_Bonds:                   7
##########                       Formal_Charge:              0.9998
##########                     HBond_Acceptors:                   8
##########                        HBond_Donors:                   2
##########                         Heavy_Atoms:                  33
##########                            HA_RMSDs:               8.165
##########                            HA_RMSDh:               7.424
##########                            HA_RMSDm:               6.521
##########                          Grid_Score:         -100.407417
##########                     Grid_vdw_energy:          -42.338463
##########                      Grid_es_energy:          -58.068954
##########           Internal_energy_repulsive:           53.376209

@<TRIPOS>MOLECULE
K30_1_3CJO
 64 67 1 0 0
SMALL
USER_CHARGES


@<TRIPOS>ATOM
      1 C1         19.0695   14.6664  112.5131 C.3     1  <0>        -0.0430
      2 C2         14.4606   14.2678  108.2449 C.3     1  <0>         0.0050
      3 C3         12.5601   19.4669  104.9283 C.ar    1  <0>        -0.0617
      4 C4         12.4357   18.3269  105.7283 C.ar    1  <0>        -0.0614
      5 C5         13.5598   19.4700  103.9831 C.ar    1  <0>        -0.0614
      6 C6         13.3321   17.2310  105.4655 C.ar    1  <0>        -0.0565
      7 C7         14.4871   18.3652  103.7694 C.ar    1  <0>        -0.0565
      8 C8         13.0309    9.9283  102.4590 C.ar    1  <0>        -0.0237
      9 C9         12.6726   11.0729  101.7511 C.ar    1  <0>        -0.0235
     10 C10        14.1886   11.2866  104.1167 C.ar    1  <0>        -0.0202
     11 C11        16.1938   15.8794  110.1262 C.3     1  <0>         0.0090
     12 C12        17.3291   15.9418  111.1686 C.3     1  <0>        -0.0302
     13 C13        14.3888   14.9814  103.4508 C.3     1  <0>        -0.0167
     14 C14        18.5495   13.9864  110.1765 C.3     1  <0>         0.0015
     15 C15        15.1291   13.5994  105.1524 C.3     1  <0>         0.0241
     16 C16        16.8019   16.1465  104.1409 C.3     1  <0>         0.0698
     17 C17        14.3654   17.2022  104.4943 C.ar    1  <0>        -0.0217
     18 C18        13.7940   10.0536  103.6387 C.ar    1  <0>         0.1238
     19 C19        13.1204   12.3443  102.1759 C.ar    1  <0>         0.1270
     20 C20        13.8743   12.4846  103.3571 C.ar    1  <0>        -0.0048
     21 C21        16.7159   15.0770  108.8975 C.3     1  <0>         0.0680
     22 C22        14.4048   13.7048  103.8785 C.3     1  <0>         0.0051
     23 C23        17.3242   13.7255  109.3022 C.3     1  <0>         0.1588
     24 C24        15.7175   15.6205  106.7400 C.2     1  <0>         0.3056
     25 C25        15.3021   15.8928  104.3141 C.3     1  <0>         0.0875
     26 N1         17.9757   14.5781  111.4451 N.4     1  <0>         0.2352
     27 N2         15.3329   15.0112  105.5300 N.am    1  <0>        -0.2729
     28 N3         15.6889   14.9367  107.9106 N.am    1  <0>        -0.2823
     29 O1         17.1009   16.5998  102.8645 O.3     1  <0>        -0.3926
     30 O2         16.2166   16.7995  106.7395 O.2     1  <0>        -0.2524
     31 F1         14.0725    8.9560  104.3179 F       1  <0>        -0.2055
     32 F2         12.7490   13.3570  101.3989 F       1  <0>        -0.2052
     33 F3         16.4192   13.0793  110.0829 F       1  <0>        -0.2380
     34 H1         19.5032   13.6690  112.6778 H       1  <0>         0.0778
     35 H2         19.8563   15.3570  112.1756 H       1  <0>         0.0778
     36 H3         18.6347   15.0369  113.4532 H       1  <0>         0.0778
     37 H4         13.7978   14.2569  107.3672 H       1  <0>         0.0429
     38 H5         14.6781   13.2343  108.5528 H       1  <0>         0.0429
     39 H6         13.9664   14.8003  109.0709 H       1  <0>         0.0429
     40 H7         11.8977   20.3115  105.0478 H       1  <0>         0.0618
     41 H8         11.6959   18.2704  106.5131 H       1  <0>         0.0618
     42 H9         13.6642   20.3459  103.3601 H       1  <0>         0.0618
     43 H10        13.2050   16.3432  106.0673 H       1  <0>         0.0621
     44 H11        15.2749   18.4605  103.0369 H       1  <0>         0.0621
     45 H12        12.7270    8.9533  102.1079 H       1  <0>         0.0647
     46 H13        12.0494   10.9886  100.8731 H       1  <0>         0.0647
     47 H14        14.7278   11.3607  105.0495 H       1  <0>         0.0650
     48 H15        15.3147   15.3780  110.5570 H       1  <0>         0.0336
     49 H16        15.9095   16.8964  109.8183 H       1  <0>         0.0336
     50 H17        18.1072   16.6204  110.7890 H       1  <0>         0.0815
     51 H18        16.9091   16.3207  112.1120 H       1  <0>         0.0815
     52 H19        14.7461   15.0087  102.4108 H       1  <0>         0.0296
     53 H20        13.3575   15.3595  103.5094 H       1  <0>         0.0296
     54 H21        19.0996   13.0563  110.3820 H       1  <0>         0.0843
     55 H22        19.2470   14.6838  109.6897 H       1  <0>         0.0843
     56 H23        14.5457   13.0548  105.9095 H       1  <0>         0.0471
     57 H24        16.0842   13.0664  105.0356 H       1  <0>         0.0471
     58 H25        17.1181   16.9076  104.8694 H       1  <0>         0.0582
     59 H26        17.3424   15.2047  104.3171 H       1  <0>         0.0582
     60 H27        17.5355   15.6543  108.4448 H       1  <0>         0.0533
     61 H28        13.8447   13.5900  102.9388 H       1  <0>         0.0366
     62 H29        17.5876   13.1430  108.4070 H       1  <0>         0.0724
     63 H30        17.2525   13.9805  111.7911 H       1  <0>         0.2031
     64 H31        18.0337   16.5121  102.7072 H       1  <0>         0.2095
@<TRIPOS>BOND
     1     1    26    1
     2     2    28    1
     3     3     4   ar
     4     3     5   ar
     5     4     6   ar
     6     5     7   ar
     7     6    17   ar
     8     7    17   ar
     9     8     9   ar
    10     8    18   ar
    11     9    19   ar
    12    10    18   ar
    13    10    20   ar
    14    11    12    1
    15    11    21    1
    16    12    26    1
    17    13    22    1
    18    13    25    1
    19    14    23    1
    20    14    26    1
    21    15    22    1
    22    15    27    1
    23    16    25    1
    24    16    29    1
    25    17    25    1
    26    18    31    1
    27    19    20   ar
    28    19    32    1
    29    20    22    1
    30    21    23    1
    31    21    28    1
    32    23    33    1
    33    24    27   am
    34    24    28   am
    35    24    30    2
    36    25    27    1
    37     1    34    1
    38     1    35    1
    39     1    36    1
    40     2    37    1
    41     2    38    1
    42     2    39    1
    43     3    40    1
    44     4    41    1
    45     5    42    1
    46     6    43    1
    47     7    44    1
    48     8    45    1
    49     9    46    1
    50    10    47    1
    51    11    48    1
    52    11    49    1
    53    12    50    1
    54    12    51    1
    55    13    52    1
    56    13    53    1
    57    14    54    1
    58    14    55    1
    59    15    56    1
    60    15    57    1
    61    16    58    1
    62    16    59    1
    63    21    60    1
    64    22    61    1
    65    23    62    1
    66    26    63    1
    67    29    64    1
@<TRIPOS>SUBSTRUCTURE
     1 <0>         1 TEMP              0 ****  ****    0 ROOT

