
##########                                Name:          K30_1_3CJO
##########                    Molecular_Weight:             462.535
##########                DOCK_Rotatable_Bonds:                   7
##########                       Formal_Charge:              0.9998
##########                     HBond_Acceptors:                   8
##########                        HBond_Donors:                   2
##########                         Heavy_Atoms:                  33
##########                            HA_RMSDs:               7.635
##########                            HA_RMSDh:               6.341
##########                            HA_RMSDm:               5.300
##########                          Grid_Score:          -92.340271
##########                     Grid_vdw_energy:          -33.432171
##########                      Grid_es_energy:          -58.908104
##########           Internal_energy_repulsive:           35.540199

@<TRIPOS>MOLECULE
K30_1_3CJO
 64 67 1 0 0
SMALL
USER_CHARGES


@<TRIPOS>ATOM
      1 C1         16.3565   15.0727  100.6901 C.3     1  <0>        -0.0430
      2 C2         14.0631   15.1881  106.5521 C.3     1  <0>         0.0050
      3 C3         17.5409   13.0379  111.5570 C.ar    1  <0>        -0.0617
      4 C4         16.3532   13.2062  110.8387 C.ar    1  <0>        -0.0614
      5 C5         18.4058   14.1066  111.6079 C.ar    1  <0>        -0.0614
      6 C6         16.1101   14.4985  110.2519 C.ar    1  <0>        -0.0565
      7 C7         18.1583   15.3908  110.9631 C.ar    1  <0>        -0.0565
      8 C8         11.0191   20.4038  110.9093 C.ar    1  <0>        -0.0237
      9 C9         11.4507   19.4345  111.8114 C.ar    1  <0>        -0.0235
     10 C10        12.7528   19.7418  109.3315 C.ar    1  <0>        -0.0202
     11 C11        15.9668   14.1193  104.4818 C.3     1  <0>         0.0090
     12 C12        16.5096   14.1100  103.0380 C.3     1  <0>        -0.0302
     13 C13        15.4745   17.5423  110.5476 C.3     1  <0>        -0.0167
     14 C14        15.9915   16.5373  102.6686 C.3     1  <0>         0.0015
     15 C15        14.5360   17.7672  108.4447 C.3     1  <0>         0.0241
     16 C16        17.7085   17.8106  108.9371 C.3     1  <0>         0.0698
     17 C17        16.9780   15.6197  110.2943 C.ar    1  <0>        -0.0217
     18 C18        11.6856   20.5469  109.6744 C.ar    1  <0>         0.1238
     19 C19        12.5838   18.6418  111.5196 C.ar    1  <0>         0.1270
     20 C20        13.2523   18.7674  110.2865 C.ar    1  <0>        -0.0048
     21 C21        15.9336   15.5978  104.9710 C.3     1  <0>         0.0680
     22 C22        14.4179   18.0463  109.8823 C.3     1  <0>         0.0051
     23 C23        15.2085   16.5213  103.9802 C.3     1  <0>         0.1588
     24 C24        16.1541   15.9853  107.3685 C.2     1  <0>         0.3056
     25 C25        16.5696   17.0158  109.5815 C.3     1  <0>         0.0875
     26 N1         15.8250   15.1354  102.1247 N.4     1  <0>         0.2352
     27 N2         15.6785   16.8352  108.3857 N.am    1  <0>        -0.2729
     28 N3         15.3880   15.6824  106.2914 N.am    1  <0>        -0.2823
     29 O1         18.3881   18.5801  109.8698 O.3     1  <0>        -0.3926
     30 O2         17.3673   15.5768  107.3829 O.2     1  <0>        -0.2524
     31 F1         11.2207   21.4370  108.8169 F       1  <0>        -0.2055
     32 F2         12.9242   17.7797  112.4725 F       1  <0>        -0.2052
     33 F3         13.9987   15.9677  103.7048 F       1  <0>        -0.2380
     34 H1         15.8389   15.8226  100.0737 H       1  <0>         0.0778
     35 H2         17.4366   15.2805  100.6899 H       1  <0>         0.0778
     36 H3         16.1757   14.0699  100.2758 H       1  <0>         0.0778
     37 H4         13.8179   15.3374  107.6139 H       1  <0>         0.0429
     38 H5         13.3392   15.7334  105.9286 H       1  <0>         0.0429
     39 H6         14.0184   14.1154  106.3129 H       1  <0>         0.0429
     40 H7         17.7702   12.1059  112.0522 H       1  <0>         0.0618
     41 H8         15.6453   12.3980  110.7282 H       1  <0>         0.0618
     42 H9         19.3261   13.9868  112.1602 H       1  <0>         0.0618
     43 H10        15.1746   14.6269  109.7277 H       1  <0>         0.0621
     44 H11        18.9069   16.1678  111.0109 H       1  <0>         0.0621
     45 H12        10.1815   21.0404  111.1531 H       1  <0>         0.0647
     46 H13        10.9167   19.2877  112.7386 H       1  <0>         0.0647
     47 H14        13.2138   19.8354  108.3593 H       1  <0>         0.0650
     48 H15        14.9533   13.6924  104.5055 H       1  <0>         0.0336
     49 H16        16.6211   13.5219  105.1336 H       1  <0>         0.0336
     50 H17        17.5838   14.3443  103.0732 H       1  <0>         0.0815
     51 H18        16.3437   13.1082  102.6150 H       1  <0>         0.0815
     52 H19        15.9086   18.3366  111.1726 H       1  <0>         0.0296
     53 H20        15.1294   16.7085  111.1766 H       1  <0>         0.0296
     54 H21        15.5890   17.2872  101.9716 H       1  <0>         0.0843
     55 H22        17.0515   16.7773  102.8383 H       1  <0>         0.0843
     56 H23        13.6187   17.3141  108.0405 H       1  <0>         0.0471
     57 H24        14.7263   18.6829  107.8657 H       1  <0>         0.0471
     58 H25        18.4164   17.1048  108.4780 H       1  <0>         0.0582
     59 H26        17.2853   18.4764  108.1705 H       1  <0>         0.0582
     60 H27        16.9719   15.9583  105.0164 H       1  <0>         0.0533
     61 H28        14.1666   18.3502  110.9092 H       1  <0>         0.0366
     62 H29        15.1132   17.5328  104.4021 H       1  <0>         0.0724
     63 H30        14.8530   14.9014  102.1056 H       1  <0>         0.2031
     64 H31        19.1778   18.9320  109.4759 H       1  <0>         0.2095
@<TRIPOS>BOND
     1     1    26    1
     2     2    28    1
     3     3     4   ar
     4     3     5   ar
     5     4     6   ar
     6     5     7   ar
     7     6    17   ar
     8     7    17   ar
     9     8     9   ar
    10     8    18   ar
    11     9    19   ar
    12    10    18   ar
    13    10    20   ar
    14    11    12    1
    15    11    21    1
    16    12    26    1
    17    13    22    1
    18    13    25    1
    19    14    23    1
    20    14    26    1
    21    15    22    1
    22    15    27    1
    23    16    25    1
    24    16    29    1
    25    17    25    1
    26    18    31    1
    27    19    20   ar
    28    19    32    1
    29    20    22    1
    30    21    23    1
    31    21    28    1
    32    23    33    1
    33    24    27   am
    34    24    28   am
    35    24    30    2
    36    25    27    1
    37     1    34    1
    38     1    35    1
    39     1    36    1
    40     2    37    1
    41     2    38    1
    42     2    39    1
    43     3    40    1
    44     4    41    1
    45     5    42    1
    46     6    43    1
    47     7    44    1
    48     8    45    1
    49     9    46    1
    50    10    47    1
    51    11    48    1
    52    11    49    1
    53    12    50    1
    54    12    51    1
    55    13    52    1
    56    13    53    1
    57    14    54    1
    58    14    55    1
    59    15    56    1
    60    15    57    1
    61    16    58    1
    62    16    59    1
    63    21    60    1
    64    22    61    1
    65    23    62    1
    66    26    63    1
    67    29    64    1
@<TRIPOS>SUBSTRUCTURE
     1 <0>         1 TEMP              0 ****  ****    0 ROOT

