
##########                                Name:          K30_1_3CJO
##########                    Molecular_Weight:             462.535
##########                DOCK_Rotatable_Bonds:                   7
##########                       Formal_Charge:              0.9998
##########                     HBond_Acceptors:                   8
##########                        HBond_Donors:                   2
##########                         Heavy_Atoms:                  33
##########                            HA_RMSDs:               9.474
##########                            HA_RMSDh:               8.585
##########                            HA_RMSDm:               7.592
##########                          Grid_Score:          -97.024734
##########                     Grid_vdw_energy:          -38.850475
##########                      Grid_es_energy:          -58.174255
##########           Internal_energy_repulsive:           31.271992

@<TRIPOS>MOLECULE
K30_1_3CJO
 64 67 1 0 0
SMALL
USER_CHARGES


@<TRIPOS>ATOM
      1 C1         19.2690   14.9987  110.3543 C.3     1  <0>        -0.0430
      2 C2         14.2488   14.2886  106.6186 C.3     1  <0>         0.0050
      3 C3         13.3542   18.7536  102.0316 C.ar    1  <0>        -0.0617
      4 C4         12.9092   17.8955  103.0419 C.ar    1  <0>        -0.0614
      5 C5         14.3138   18.2728  101.1709 C.ar    1  <0>        -0.0614
      6 C6         13.4558   16.5636  103.0697 C.ar    1  <0>        -0.0565
      7 C7         14.8875   16.9346  101.2504 C.ar    1  <0>        -0.0565
      8 C8         11.0149    9.1842  102.2187 C.ar    1  <0>        -0.0237
      9 C9         10.4522   10.4293  101.9492 C.ar    1  <0>        -0.0235
     10 C10        13.1242   10.2416  102.8238 C.ar    1  <0>        -0.0202
     11 C11        16.9260   16.0130  107.3678 C.3     1  <0>         0.0090
     12 C12        18.1395   16.0227  108.3199 C.3     1  <0>        -0.0302
     13 C13        13.7351   13.7148  101.8326 C.3     1  <0>        -0.0167
     14 C14        17.9884   13.5602  108.7784 C.3     1  <0>         0.0015
     15 C15        14.3014   12.6715  103.8186 C.3     1  <0>         0.0241
     16 C16        16.4398   14.2646  102.0302 C.3     1  <0>         0.0698
     17 C17        14.4386   16.0379  102.1924 C.ar    1  <0>        -0.0217
     18 C18        12.3555    9.1085  102.6511 C.ar    1  <0>         0.1238
     19 C19        11.2339   11.6025  102.0487 C.ar    1  <0>         0.1270
     20 C20        12.5702   11.5423  102.4888 C.ar    1  <0>        -0.0048
     21 C21        16.7036   14.5470  106.8909 C.3     1  <0>         0.0680
     22 C22        13.4689   12.6469  102.6083 C.3     1  <0>         0.0051
     23 C23        16.6377   13.5580  108.0648 C.3     1  <0>         0.1588
     24 C24        15.6084   14.7748  104.7239 C.2     1  <0>         0.3056
     25 C25        14.9629   14.5130  102.3477 C.3     1  <0>         0.0875
     26 N1         18.0721   14.9363  109.4013 N.4     1  <0>         0.2352
     27 N2         14.9198   14.0101  103.7625 N.am    1  <0>        -0.2729
     28 N3         15.5549   14.4593  106.0417 N.am    1  <0>        -0.2823
     29 O1         16.5950   13.3657  100.9851 O.3     1  <0>        -0.3926
     30 O2         16.3972   15.7143  104.3578 O.2     1  <0>        -0.2524
     31 F1         12.8453    7.9195  102.9511 F       1  <0>        -0.2055
     32 F2         10.6000   12.7262  101.7283 F       1  <0>        -0.2052
     33 F3         15.7261   14.0296  108.9551 F       1  <0>        -0.2380
     34 H1         19.1784   14.2044  111.1099 H       1  <0>         0.0778
     35 H2         20.1991   14.8580  109.7843 H       1  <0>         0.0778
     36 H3         19.2893   15.9788  110.8535 H       1  <0>         0.0778
     37 H4         13.4967   14.2424  105.8172 H       1  <0>         0.0429
     38 H5         14.2237   13.3545  107.1990 H       1  <0>         0.0429
     39 H6         14.0269   15.1382  107.2811 H       1  <0>         0.0429
     40 H7         12.9602   19.7541  101.9309 H       1  <0>         0.0618
     41 H8         12.1835   18.2192  103.7733 H       1  <0>         0.0618
     42 H9         14.6642   18.9277  100.3870 H       1  <0>         0.0618
     43 H10        13.0803   15.8993  103.8339 H       1  <0>         0.0621
     44 H11        15.6703   16.6453  100.5649 H       1  <0>         0.0621
     45 H12        10.4300    8.2844  102.0977 H       1  <0>         0.0647
     46 H13         9.4132   10.4986  101.6627 H       1  <0>         0.0647
     47 H14        14.1314   10.1619  103.2054 H       1  <0>         0.0650
     48 H15        16.0316   16.3771  107.8945 H       1  <0>         0.0336
     49 H16        17.1209   16.6645  106.5031 H       1  <0>         0.0336
     50 H17        19.0472   15.8559  107.7214 H       1  <0>         0.0815
     51 H18        18.1771   17.0024  108.8188 H       1  <0>         0.0815
     52 H19        13.9460   13.3645  100.8115 H       1  <0>         0.0296
     53 H20        12.8578   14.3784  101.8341 H       1  <0>         0.0296
     54 H21        18.0380   12.7712  109.5432 H       1  <0>         0.0843
     55 H22        18.8143   13.3900  108.0720 H       1  <0>         0.0843
     56 H23        13.7001   12.5378  104.7300 H       1  <0>         0.0471
     57 H24        15.0572   11.8724  103.8101 H       1  <0>         0.0471
     58 H25        16.9060   15.2198  101.7470 H       1  <0>         0.0582
     59 H26        16.9295   13.8537  102.9253 H       1  <0>         0.0582
     60 H27        17.5805   14.2523  106.2958 H       1  <0>         0.0533
     61 H28        12.7792   12.4591  101.7722 H       1  <0>         0.0366
     62 H29        16.3782   12.5526  107.7017 H       1  <0>         0.0724
     63 H30        17.2432   15.1095  109.9332 H       1  <0>         0.2031
     64 H31        16.8395   12.5156  101.3316 H       1  <0>         0.2095
@<TRIPOS>BOND
     1     1    26    1
     2     2    28    1
     3     3     4   ar
     4     3     5   ar
     5     4     6   ar
     6     5     7   ar
     7     6    17   ar
     8     7    17   ar
     9     8     9   ar
    10     8    18   ar
    11     9    19   ar
    12    10    18   ar
    13    10    20   ar
    14    11    12    1
    15    11    21    1
    16    12    26    1
    17    13    22    1
    18    13    25    1
    19    14    23    1
    20    14    26    1
    21    15    22    1
    22    15    27    1
    23    16    25    1
    24    16    29    1
    25    17    25    1
    26    18    31    1
    27    19    20   ar
    28    19    32    1
    29    20    22    1
    30    21    23    1
    31    21    28    1
    32    23    33    1
    33    24    27   am
    34    24    28   am
    35    24    30    2
    36    25    27    1
    37     1    34    1
    38     1    35    1
    39     1    36    1
    40     2    37    1
    41     2    38    1
    42     2    39    1
    43     3    40    1
    44     4    41    1
    45     5    42    1
    46     6    43    1
    47     7    44    1
    48     8    45    1
    49     9    46    1
    50    10    47    1
    51    11    48    1
    52    11    49    1
    53    12    50    1
    54    12    51    1
    55    13    52    1
    56    13    53    1
    57    14    54    1
    58    14    55    1
    59    15    56    1
    60    15    57    1
    61    16    58    1
    62    16    59    1
    63    21    60    1
    64    22    61    1
    65    23    62    1
    66    26    63    1
    67    29    64    1
@<TRIPOS>SUBSTRUCTURE
     1 <0>         1 TEMP              0 ****  ****    0 ROOT

