
##########                                Name:          K30_1_3CJO
##########                    Molecular_Weight:             462.535
##########                DOCK_Rotatable_Bonds:                   7
##########                       Formal_Charge:              0.9998
##########                     HBond_Acceptors:                   8
##########                        HBond_Donors:                   2
##########                         Heavy_Atoms:                  33
##########                            HA_RMSDs:               8.498
##########                            HA_RMSDh:               7.777
##########                            HA_RMSDm:               6.890
##########                          Grid_Score:          -97.446793
##########                     Grid_vdw_energy:          -40.605713
##########                      Grid_es_energy:          -56.841080
##########           Internal_energy_repulsive:           57.470623

@<TRIPOS>MOLECULE
K30_1_3CJO
 64 67 1 0 0
SMALL
USER_CHARGES


@<TRIPOS>ATOM
      1 C1         19.1492   15.4552  111.6436 C.3     1  <0>        -0.0430
      2 C2         14.5578   14.1117  107.5537 C.3     1  <0>         0.0050
      3 C3         12.2192   18.9847  104.0477 C.ar    1  <0>        -0.0617
      4 C4         12.3583   18.0066  105.0371 C.ar    1  <0>        -0.0614
      5 C5         13.0085   18.8671  102.9270 C.ar    1  <0>        -0.0614
      6 C6         13.2804   16.9306  104.7813 C.ar    1  <0>        -0.0565
      7 C7         13.9712   17.7930  102.7134 C.ar    1  <0>        -0.0565
      8 C8         13.0094    9.3253  102.2147 C.ar    1  <0>        -0.0237
      9 C9         12.8783   10.3358  101.2654 C.ar    1  <0>        -0.0235
     10 C10        13.8862   10.9236  103.8302 C.ar    1  <0>        -0.0202
     11 C11        16.4857   16.3343  108.8921 C.3     1  <0>         0.0090
     12 C12        17.6471   16.5193  109.8901 C.3     1  <0>        -0.0302
     13 C13        14.1914   14.4970  102.7354 C.3     1  <0>        -0.0167
     14 C14        18.4235   14.1445  109.6566 C.3     1  <0>         0.0015
     15 C15        15.0968   13.2727  104.4775 C.3     1  <0>         0.0241
     16 C16        16.5694   15.8295  103.2112 C.3     1  <0>         0.0698
     17 C17        14.1003   16.7787  103.6338 C.ar    1  <0>        -0.0217
     18 C18        13.5203    9.6365  103.4922 C.ar    1  <0>         0.1238
     19 C19        13.3096   11.6497  101.5572 C.ar    1  <0>         0.1270
     20 C20        13.8120   11.9763  102.8316 C.ar    1  <0>        -0.0048
     21 C21        16.7962   15.0789  108.0239 C.3     1  <0>         0.0680
     22 C22        14.3009   13.2546  103.2427 C.3     1  <0>         0.0051
     23 C23        17.1409   13.8510  108.8805 C.3     1  <0>         0.1588
     24 C24        15.6557   15.4238  105.8961 C.2     1  <0>         0.3056
     25 C25        15.0973   15.5105  103.4852 C.3     1  <0>         0.0875
     26 N1         18.0224   15.2295  110.6316 N.4     1  <0>         0.2352
     27 N2         15.2417   14.7154  104.7515 N.am    1  <0>        -0.2729
     28 N3         15.7275   14.8195  107.1080 N.am    1  <0>        -0.2823
     29 O1         16.7757   16.2030  101.8914 O.3     1  <0>        -0.3926
     30 O2         16.0879   16.6243  105.7916 O.2     1  <0>        -0.2524
     31 F1         13.5824    8.6693  104.3890 F       1  <0>        -0.2055
     32 F2         13.1714   12.5185  100.5606 F       1  <0>        -0.2052
     33 F3         16.1546   13.6970  109.8023 F       1  <0>        -0.2380
     34 H1         19.3839   14.5069  112.1493 H       1  <0>         0.0778
     35 H2         20.0440   15.8225  111.1199 H       1  <0>         0.0778
     36 H3         18.8291   16.1984  112.3887 H       1  <0>         0.0778
     37 H4         13.8508   14.0075  106.7175 H       1  <0>         0.0429
     38 H5         14.8484   13.1140  107.9145 H       1  <0>         0.0429
     39 H6         14.0794   14.6721  108.3705 H       1  <0>         0.0429
     40 H7         11.5199   19.8002  104.1589 H       1  <0>         0.0618
     41 H8         11.7959   18.0562  105.9578 H       1  <0>         0.0618
     42 H9         12.9086   19.6176  102.1569 H       1  <0>         0.0618
     43 H10        13.3551   16.1634  105.5378 H       1  <0>         0.0621
     44 H11        14.5874   17.7939  101.8264 H       1  <0>         0.0621
     45 H12        12.7225    8.3121  101.9749 H       1  <0>         0.0647
     46 H13        12.4448   10.1143  100.3014 H       1  <0>         0.0647
     47 H14        14.2257   11.1469  104.8309 H       1  <0>         0.0650
     48 H15        15.5409   16.1907  109.4367 H       1  <0>         0.0336
     49 H16        16.3961   17.2230  108.2501 H       1  <0>         0.0336
     50 H17        18.5296   16.8632  109.3306 H       1  <0>         0.0815
     51 H18        17.3433   17.2685  110.6360 H       1  <0>         0.0815
     52 H19        14.4907   14.4730  101.6773 H       1  <0>         0.0296
     53 H20        13.1453   14.8242  102.8281 H       1  <0>         0.0296
     54 H21        18.7870   13.2490  110.1819 H       1  <0>         0.0843
     55 H22        19.2270   14.4854  108.9871 H       1  <0>         0.0843
     56 H23        14.5857   12.7507  105.2999 H       1  <0>         0.0471
     57 H24        16.0725   12.7834  104.3412 H       1  <0>         0.0471
     58 H25        16.8793   16.6576  103.8655 H       1  <0>         0.0582
     59 H26        17.1707   14.9330  103.4229 H       1  <0>         0.0582
     60 H27        17.6968   15.2967  107.4310 H       1  <0>         0.0533
     61 H28        13.6988   13.0481  102.3455 H       1  <0>         0.0366
     62 H29        17.2529   12.9613  108.2433 H       1  <0>         0.0724
     63 H30        17.2084   14.9380  111.1341 H       1  <0>         0.2031
     64 H31        17.6852   16.4494  101.7699 H       1  <0>         0.2095
@<TRIPOS>BOND
     1     1    26    1
     2     2    28    1
     3     3     4   ar
     4     3     5   ar
     5     4     6   ar
     6     5     7   ar
     7     6    17   ar
     8     7    17   ar
     9     8     9   ar
    10     8    18   ar
    11     9    19   ar
    12    10    18   ar
    13    10    20   ar
    14    11    12    1
    15    11    21    1
    16    12    26    1
    17    13    22    1
    18    13    25    1
    19    14    23    1
    20    14    26    1
    21    15    22    1
    22    15    27    1
    23    16    25    1
    24    16    29    1
    25    17    25    1
    26    18    31    1
    27    19    20   ar
    28    19    32    1
    29    20    22    1
    30    21    23    1
    31    21    28    1
    32    23    33    1
    33    24    27   am
    34    24    28   am
    35    24    30    2
    36    25    27    1
    37     1    34    1
    38     1    35    1
    39     1    36    1
    40     2    37    1
    41     2    38    1
    42     2    39    1
    43     3    40    1
    44     4    41    1
    45     5    42    1
    46     6    43    1
    47     7    44    1
    48     8    45    1
    49     9    46    1
    50    10    47    1
    51    11    48    1
    52    11    49    1
    53    12    50    1
    54    12    51    1
    55    13    52    1
    56    13    53    1
    57    14    54    1
    58    14    55    1
    59    15    56    1
    60    15    57    1
    61    16    58    1
    62    16    59    1
    63    21    60    1
    64    22    61    1
    65    23    62    1
    66    26    63    1
    67    29    64    1
@<TRIPOS>SUBSTRUCTURE
     1 <0>         1 TEMP              0 ****  ****    0 ROOT

