
##########                                Name:          K30_1_3CJO
##########                    Molecular_Weight:             462.535
##########                DOCK_Rotatable_Bonds:                   7
##########                       Formal_Charge:              0.9998
##########                     HBond_Acceptors:                   8
##########                        HBond_Donors:                   2
##########                         Heavy_Atoms:                  33
##########                            HA_RMSDs:               8.171
##########                            HA_RMSDh:               6.641
##########                            HA_RMSDm:               5.581
##########                          Grid_Score:          -92.290009
##########                     Grid_vdw_energy:          -34.787422
##########                      Grid_es_energy:          -57.502590
##########           Internal_energy_repulsive:           51.066814

@<TRIPOS>MOLECULE
K30_1_3CJO
 64 67 1 0 0
SMALL
USER_CHARGES


@<TRIPOS>ATOM
      1 C1         15.7602   14.3540  100.8449 C.3     1  <0>        -0.0430
      2 C2         13.9224   14.2906  106.8596 C.3     1  <0>         0.0050
      3 C3         18.3825   14.2327  111.5501 C.ar    1  <0>        -0.0617
      4 C4         17.1164   13.8607  111.0880 C.ar    1  <0>        -0.0614
      5 C5         18.7828   15.5291  111.3227 C.ar    1  <0>        -0.0614
      6 C6         16.3161   14.8768  110.4552 C.ar    1  <0>        -0.0565
      7 C7         17.9719   16.5271  110.6352 C.ar    1  <0>        -0.0565
      8 C8          9.3103   18.0238  111.2020 C.ar    1  <0>        -0.0237
      9 C9         10.3282   18.2241  112.1312 C.ar    1  <0>        -0.0235
     10 C10        10.9366   17.2952  109.5415 C.ar    1  <0>        -0.0202
     11 C11        16.2227   14.0569  104.7354 C.3     1  <0>         0.0090
     12 C12        16.5860   14.1151  103.2374 C.3     1  <0>        -0.0302
     13 C13        14.5583   17.3765  110.5435 C.3     1  <0>        -0.0167
     14 C14        14.6690   15.6348  102.6784 C.3     1  <0>         0.0015
     15 C15        13.4374   17.0016  108.5544 C.3     1  <0>         0.0241
     16 C16        16.3335   18.3829  108.6746 C.3     1  <0>         0.0698
     17 C17        16.6982   16.2214  110.2144 C.ar    1  <0>        -0.0217
     18 C18         9.6335   17.5629  109.9086 C.ar    1  <0>         0.1238
     19 C19        11.6787   18.0262  111.7644 C.ar    1  <0>         0.1270
     20 C20        12.0146   17.5567  110.4799 C.ar    1  <0>        -0.0048
     21 C21        15.3121   15.2796  105.0548 C.3     1  <0>         0.0680
     22 C22        13.3358   17.3406  109.9803 C.3     1  <0>         0.0051
     23 C23        14.1257   15.3894  104.0849 C.3     1  <0>         0.1588
     24 C24        15.5530   15.9446  107.3886 C.2     1  <0>         0.3056
     25 C25        15.6873   17.2560  109.4848 C.3     1  <0>         0.0875
     26 N1         15.3727   14.3426  102.3262 N.4     1  <0>         0.2352
     27 N2         14.8547   16.6166  108.4104 N.am    1  <0>        -0.2729
     28 N3         14.8944   15.2564  106.4235 N.am    1  <0>        -0.2823
     29 O1         16.4525   19.5467  109.4199 O.3     1  <0>        -0.3926
     30 O2         16.8227   16.0707  107.2832 O.2     1  <0>        -0.2524
     31 F1          8.6433   17.3304  109.0665 F       1  <0>        -0.2055
     32 F2         12.5628   18.2871  112.7222 F       1  <0>        -0.2052
     33 F3         13.4996   14.1840  104.0557 F       1  <0>        -0.2380
     34 H1         14.8621   14.5195  100.2317 H       1  <0>         0.0778
     35 H2         16.4833   15.1623  100.6615 H       1  <0>         0.0778
     36 H3         16.2138   13.3882  100.5773 H       1  <0>         0.0778
     37 H4         13.7280   14.4247  107.9339 H       1  <0>         0.0429
     38 H5         12.9875   14.4319  106.2974 H       1  <0>         0.0429
     39 H6         14.3081   13.2760  106.6808 H       1  <0>         0.0429
     40 H7         19.0210   13.5301  112.0651 H       1  <0>         0.0618
     41 H8         16.7527   12.8500  111.2012 H       1  <0>         0.0618
     42 H9         19.7591   15.8265  111.6758 H       1  <0>         0.0618
     43 H10        15.3273   14.5865  110.1321 H       1  <0>         0.0621
     44 H11        18.3740   17.5130  110.4550 H       1  <0>         0.0621
     45 H12         8.2824   18.2197  111.4694 H       1  <0>         0.0647
     46 H13        10.0844   18.5320  113.1372 H       1  <0>         0.0647
     47 H14        11.1539   16.8938  108.5627 H       1  <0>         0.0650
     48 H15        15.6878   13.1215  104.9567 H       1  <0>         0.0336
     49 H16        17.1366   14.0986  105.3461 H       1  <0>         0.0336
     50 H17        17.2899   14.9469  103.0866 H       1  <0>         0.0815
     51 H18        17.0502   13.1574  102.9589 H       1  <0>         0.0815
     52 H19        14.6737   18.3332  111.0739 H       1  <0>         0.0296
     53 H20        14.6459   16.5369  111.2488 H       1  <0>         0.0296
     54 H21        13.8576   15.8546  101.9689 H       1  <0>         0.0843
     55 H22        15.3647   16.4867  102.6612 H       1  <0>         0.0843
     56 H23        12.7613   16.1779  108.2817 H       1  <0>         0.0471
     57 H24        13.1799   17.8569  107.9125 H       1  <0>         0.0471
     58 H25        17.3369   18.0610  108.3592 H       1  <0>         0.0582
     59 H26        15.7069   18.5895  107.7944 H       1  <0>         0.0582
     60 H27        15.9106   16.1904  104.9051 H       1  <0>         0.0533
     61 H28        13.0685   17.6094  111.0130 H       1  <0>         0.0366
     62 H29        13.4498   16.1982  104.3999 H       1  <0>         0.0724
     63 H30        14.7499   13.5751  102.4777 H       1  <0>         0.2031
     64 H31        17.2711   19.9784  109.2054 H       1  <0>         0.2095
@<TRIPOS>BOND
     1     1    26    1
     2     2    28    1
     3     3     4   ar
     4     3     5   ar
     5     4     6   ar
     6     5     7   ar
     7     6    17   ar
     8     7    17   ar
     9     8     9   ar
    10     8    18   ar
    11     9    19   ar
    12    10    18   ar
    13    10    20   ar
    14    11    12    1
    15    11    21    1
    16    12    26    1
    17    13    22    1
    18    13    25    1
    19    14    23    1
    20    14    26    1
    21    15    22    1
    22    15    27    1
    23    16    25    1
    24    16    29    1
    25    17    25    1
    26    18    31    1
    27    19    20   ar
    28    19    32    1
    29    20    22    1
    30    21    23    1
    31    21    28    1
    32    23    33    1
    33    24    27   am
    34    24    28   am
    35    24    30    2
    36    25    27    1
    37     1    34    1
    38     1    35    1
    39     1    36    1
    40     2    37    1
    41     2    38    1
    42     2    39    1
    43     3    40    1
    44     4    41    1
    45     5    42    1
    46     6    43    1
    47     7    44    1
    48     8    45    1
    49     9    46    1
    50    10    47    1
    51    11    48    1
    52    11    49    1
    53    12    50    1
    54    12    51    1
    55    13    52    1
    56    13    53    1
    57    14    54    1
    58    14    55    1
    59    15    56    1
    60    15    57    1
    61    16    58    1
    62    16    59    1
    63    21    60    1
    64    22    61    1
    65    23    62    1
    66    26    63    1
    67    29    64    1
@<TRIPOS>SUBSTRUCTURE
     1 <0>         1 TEMP              0 ****  ****    0 ROOT

