
##########                                Name:          K30_1_3CJO
##########                    Molecular_Weight:             462.535
##########                DOCK_Rotatable_Bonds:                   7
##########                       Formal_Charge:              0.9998
##########                     HBond_Acceptors:                   8
##########                        HBond_Donors:                   2
##########                         Heavy_Atoms:                  33
##########                            HA_RMSDs:               8.312
##########                            HA_RMSDh:               6.930
##########                            HA_RMSDm:               6.348
##########                          Grid_Score:          -82.803223
##########                     Grid_vdw_energy:          -22.750717
##########                      Grid_es_energy:          -60.052502
##########           Internal_energy_repulsive:           56.931015

@<TRIPOS>MOLECULE
K30_1_3CJO
 64 67 1 0 0
SMALL
USER_CHARGES


@<TRIPOS>ATOM
      1 C1         21.0698   14.0760  107.7929 C.3     1  <0>        -0.0430
      2 C2         14.9072   14.7102  106.6031 C.3     1  <0>         0.0050
      3 C3         10.6075   16.3445  111.1851 C.ar    1  <0>        -0.0617
      4 C4         10.6953   15.8038  109.8986 C.ar    1  <0>        -0.0614
      5 C5         11.3229   17.4919  111.4388 C.ar    1  <0>        -0.0614
      6 C6         11.4879   16.5178  108.9315 C.ar    1  <0>        -0.0565
      7 C7         12.1583   18.1696  110.4544 C.ar    1  <0>        -0.0565
      8 C8         11.1086   18.6408  101.6307 C.ar    1  <0>        -0.0237
      9 C9         10.1936   18.8560  102.6584 C.ar    1  <0>        -0.0235
     10 C10        12.8356   18.0780  103.2537 C.ar    1  <0>        -0.0202
     11 C11        17.1776   14.0545  108.3297 C.3     1  <0>         0.0090
     12 C12        18.6793   13.8795  108.6356 C.3     1  <0>        -0.0302
     13 C13        11.9925   18.5739  106.8785 C.3     1  <0>        -0.0167
     14 C14        19.3610   15.7507  107.1089 C.3     1  <0>         0.0015
     15 C15        13.7766   17.6192  105.7563 C.3     1  <0>         0.0241
     16 C16        14.1506   19.4077  108.3965 C.3     1  <0>         0.0698
     17 C17        12.2289   17.7053  109.1613 C.ar    1  <0>        -0.0217
     18 C18        12.4284   18.2564  101.9472 C.ar    1  <0>         0.1238
     19 C19        10.5983   18.7500  104.0083 C.ar    1  <0>         0.1270
     20 C20        11.9099   18.3572  104.3382 C.ar    1  <0>        -0.0048
     21 C21        16.9715   15.4839  107.7462 C.3     1  <0>         0.0680
     22 C22        12.4474   18.2372  105.6567 C.3     1  <0>         0.0051
     23 C23        17.9279   15.7789  106.5806 C.3     1  <0>         0.1588
     24 C24        14.8479   16.6622  107.9672 C.2     1  <0>         0.3056
     25 C25        13.0817   18.3978  107.9706 C.3     1  <0>         0.0875
     26 N1         19.5891   14.3004  107.4739 N.4     1  <0>         0.2352
     27 N2         13.9391   17.4266  107.2103 N.am    1  <0>        -0.2729
     28 N3         15.6011   15.6931  107.3906 N.am    1  <0>        -0.2823
     29 O1         13.5869   20.5469  108.9519 O.3     1  <0>        -0.3926
     30 O2         15.0675   16.9494  109.1954 O.2     1  <0>        -0.2524
     31 F1         13.2585   18.0067  100.9510 F       1  <0>        -0.2055
     32 F2          9.6491   19.0169  104.8999 F       1  <0>        -0.2052
     33 F3         17.8219   14.7603  105.6878 F       1  <0>        -0.2380
     34 H1         21.6820   14.3906  106.9348 H       1  <0>         0.0778
     35 H2         21.3478   14.6671  108.6778 H       1  <0>         0.0778
     36 H3         21.2435   13.0088  107.9952 H       1  <0>         0.0778
     37 H4         13.8724   15.0414  106.4312 H       1  <0>         0.0429
     38 H5         15.4181   14.5876  105.6367 H       1  <0>         0.0429
     39 H6         14.9003   13.7496  107.1390 H       1  <0>         0.0429
     40 H7         10.0021   15.8798  111.9493 H       1  <0>         0.0618
     41 H8         10.1881   14.8859  109.6403 H       1  <0>         0.0618
     42 H9         11.2618   17.9176  112.4294 H       1  <0>         0.0618
     43 H10        11.5216   16.1088  107.9325 H       1  <0>         0.0621
     44 H11        12.7257   19.0422  110.7425 H       1  <0>         0.0621
     45 H12        10.8103   18.7672  100.6005 H       1  <0>         0.0647
     46 H13         9.1695   19.1051  102.4225 H       1  <0>         0.0647
     47 H14        13.8362   17.7331  103.4687 H       1  <0>         0.0650
     48 H15        16.8519   13.2994  107.5993 H       1  <0>         0.0336
     49 H16        16.5896   13.9361  109.2519 H       1  <0>         0.0336
     50 H17        18.9270   14.5011  109.5086 H       1  <0>         0.0815
     51 H18        18.8649   12.8166  108.8497 H       1  <0>         0.0815
     52 H19        11.6801   19.6283  106.8597 H       1  <0>         0.0296
     53 H20        11.1376   17.9276  107.1263 H       1  <0>         0.0296
     54 H21        20.0760   16.0879  106.3439 H       1  <0>         0.0843
     55 H22        19.4777   16.4066  107.9842 H       1  <0>         0.0843
     56 H23        13.8248   16.6653  105.2106 H       1  <0>         0.0471
     57 H24        14.5607   18.2691  105.3407 H       1  <0>         0.0471
     58 H25        14.8043   18.9359  109.1449 H       1  <0>         0.0582
     59 H26        14.7351   19.6982  107.5111 H       1  <0>         0.0582
     60 H27        17.2244   16.2070  108.5356 H       1  <0>         0.0533
     61 H28        11.4758   18.6786  105.3898 H       1  <0>         0.0366
     62 H29        17.6872   16.7519  106.1273 H       1  <0>         0.0724
     63 H30        19.3488   13.7216  106.6947 H       1  <0>         0.2031
     64 H31        14.0749   20.7962  109.7280 H       1  <0>         0.2095
@<TRIPOS>BOND
     1     1    26    1
     2     2    28    1
     3     3     4   ar
     4     3     5   ar
     5     4     6   ar
     6     5     7   ar
     7     6    17   ar
     8     7    17   ar
     9     8     9   ar
    10     8    18   ar
    11     9    19   ar
    12    10    18   ar
    13    10    20   ar
    14    11    12    1
    15    11    21    1
    16    12    26    1
    17    13    22    1
    18    13    25    1
    19    14    23    1
    20    14    26    1
    21    15    22    1
    22    15    27    1
    23    16    25    1
    24    16    29    1
    25    17    25    1
    26    18    31    1
    27    19    20   ar
    28    19    32    1
    29    20    22    1
    30    21    23    1
    31    21    28    1
    32    23    33    1
    33    24    27   am
    34    24    28   am
    35    24    30    2
    36    25    27    1
    37     1    34    1
    38     1    35    1
    39     1    36    1
    40     2    37    1
    41     2    38    1
    42     2    39    1
    43     3    40    1
    44     4    41    1
    45     5    42    1
    46     6    43    1
    47     7    44    1
    48     8    45    1
    49     9    46    1
    50    10    47    1
    51    11    48    1
    52    11    49    1
    53    12    50    1
    54    12    51    1
    55    13    52    1
    56    13    53    1
    57    14    54    1
    58    14    55    1
    59    15    56    1
    60    15    57    1
    61    16    58    1
    62    16    59    1
    63    21    60    1
    64    22    61    1
    65    23    62    1
    66    26    63    1
    67    29    64    1
@<TRIPOS>SUBSTRUCTURE
     1 <0>         1 TEMP              0 ****  ****    0 ROOT

