
##########                                Name:          K30_1_3CJO
##########                    Molecular_Weight:             462.535
##########                DOCK_Rotatable_Bonds:                   7
##########                       Formal_Charge:              0.9998
##########                     HBond_Acceptors:                   8
##########                        HBond_Donors:                   2
##########                         Heavy_Atoms:                  33
##########                            HA_RMSDs:               6.191
##########                            HA_RMSDh:               5.195
##########                            HA_RMSDm:               4.494
##########                          Grid_Score:          -86.891357
##########                     Grid_vdw_energy:          -42.376316
##########                      Grid_es_energy:          -44.515045
##########           Internal_energy_repulsive:           42.227924

@<TRIPOS>MOLECULE
K30_1_3CJO
 64 67 1 0 0
SMALL
USER_CHARGES


@<TRIPOS>ATOM
      1 C1         13.7874   21.3861  113.0412 C.3     1  <0>        -0.0430
      2 C2         14.2483   18.1414  107.6731 C.3     1  <0>         0.0050
      3 C3         20.0628   16.0964  105.6302 C.ar    1  <0>        -0.0617
      4 C4         18.7673   16.3542  105.1716 C.ar    1  <0>        -0.0614
      5 C5         20.1901   15.3479  106.7775 C.ar    1  <0>        -0.0614
      6 C6         17.6748   15.7753  105.9097 C.ar    1  <0>        -0.0565
      7 C7         19.0645   14.8135  107.5348 C.ar    1  <0>        -0.0565
      8 C8         11.1019   12.1638  104.5863 C.ar    1  <0>        -0.0237
      9 C9         12.3422   12.1452  103.9531 C.ar    1  <0>        -0.0235
     10 C10        12.0554   13.3768  106.4711 C.ar    1  <0>        -0.0202
     11 C11        15.6397   19.6576  110.0381 C.3     1  <0>         0.0090
     12 C12        15.4348   20.4221  111.3620 C.3     1  <0>        -0.0302
     13 C13        15.7681   13.6550  106.6434 C.3     1  <0>        -0.0167
     14 C14        13.2827   19.2417  111.8838 C.3     1  <0>         0.0015
     15 C15        14.0673   14.9141  107.5789 C.3     1  <0>         0.0241
     16 C16        16.6203   13.9335  109.2612 C.3     1  <0>         0.0698
     17 C17        17.7754   14.9941  107.0894 C.ar    1  <0>        -0.0217
     18 C18        10.9775   12.7806  105.8487 C.ar    1  <0>         0.1238
     19 C19        13.4797   12.6850  104.5952 C.ar    1  <0>         0.1270
     20 C20        13.3677   13.3125  105.8510 C.ar    1  <0>        -0.0048
     21 C21        14.7686   18.3674  110.0908 C.3     1  <0>         0.0680
     22 C22        14.4398   13.8726  106.6119 C.3     1  <0>         0.0051
     23 C23        13.3098   18.6666  110.4689 C.3     1  <0>         0.1588
     24 C24        15.7415   16.6050  108.7144 C.2     1  <0>         0.3056
     25 C25        16.4508   14.4093  107.8159 C.3     1  <0>         0.0875
     26 N1         13.9585   20.5882  111.7456 N.4     1  <0>         0.2352
     27 N2         15.3760   15.4400  108.0127 N.am    1  <0>        -0.2729
     28 N3         14.8729   17.6354  108.8654 N.am    1  <0>        -0.2823
     29 O1         17.0242   12.6078  109.3202 O.3     1  <0>        -0.3926
     30 O2         16.8639   16.6645  109.3274 O.2     1  <0>        -0.2524
     31 F1          9.7788   12.8307  106.4003 F       1  <0>        -0.2055
     32 F2         14.6141   12.5737  103.9112 F       1  <0>        -0.2052
     33 F3         12.8583   19.6455  109.6419 F       1  <0>        -0.2380
     34 H1         12.7168   21.4797  113.2761 H       1  <0>         0.0778
     35 H2         14.2987   20.8641  113.8634 H       1  <0>         0.0778
     36 H3         14.2238   22.3879  112.9150 H       1  <0>         0.0778
     37 H4         14.4348   17.4492  106.8388 H       1  <0>         0.0429
     38 H5         13.1645   18.2333  107.8379 H       1  <0>         0.0429
     39 H6         14.6675   19.1291  107.4307 H       1  <0>         0.0429
     40 H7         20.9291   16.4701  105.1046 H       1  <0>         0.0618
     41 H8         18.5928   16.9640  104.2975 H       1  <0>         0.0618
     42 H9         21.1866   15.1432  107.1400 H       1  <0>         0.0618
     43 H10        16.6806   15.9535  105.5274 H       1  <0>         0.0621
     44 H11        19.2441   14.2721  108.4519 H       1  <0>         0.0621
     45 H12        10.2428   11.7100  104.1148 H       1  <0>         0.0647
     46 H13        12.4353   11.7162  102.9663 H       1  <0>         0.0647
     47 H14        11.9243   13.8880  107.4134 H       1  <0>         0.0650
     48 H15        15.3311   20.2855  109.1894 H       1  <0>         0.0336
     49 H16        16.7001   19.3909  109.9179 H       1  <0>         0.0336
     50 H17        15.9372   19.8613  112.1640 H       1  <0>         0.0815
     51 H18        15.8762   21.4237  111.2524 H       1  <0>         0.0815
     52 H19        15.9454   12.5766  106.7677 H       1  <0>         0.0296
     53 H20        16.2049   14.0062  105.6969 H       1  <0>         0.0296
     54 H21        12.2519   19.3475  112.2529 H       1  <0>         0.0843
     55 H22        13.8230   18.5936  112.5895 H       1  <0>         0.0843
     56 H23        13.4462   15.6959  107.1174 H       1  <0>         0.0471
     57 H24        13.4937   14.5015  108.4220 H       1  <0>         0.0471
     58 H25        17.3820   14.5573  109.7516 H       1  <0>         0.0582
     59 H26        15.6561   14.0326  109.7812 H       1  <0>         0.0582
     60 H27        15.1646   17.7291  110.8943 H       1  <0>         0.0533
     61 H28        14.5272   13.0816  105.8525 H       1  <0>         0.0366
     62 H29        12.7024   17.7523  110.3965 H       1  <0>         0.0724
     63 H30        13.5240   21.1018  111.0057 H       1  <0>         0.2031
     64 H31        16.9251   12.2853  110.2083 H       1  <0>         0.2095
@<TRIPOS>BOND
     1     1    26    1
     2     2    28    1
     3     3     4   ar
     4     3     5   ar
     5     4     6   ar
     6     5     7   ar
     7     6    17   ar
     8     7    17   ar
     9     8     9   ar
    10     8    18   ar
    11     9    19   ar
    12    10    18   ar
    13    10    20   ar
    14    11    12    1
    15    11    21    1
    16    12    26    1
    17    13    22    1
    18    13    25    1
    19    14    23    1
    20    14    26    1
    21    15    22    1
    22    15    27    1
    23    16    25    1
    24    16    29    1
    25    17    25    1
    26    18    31    1
    27    19    20   ar
    28    19    32    1
    29    20    22    1
    30    21    23    1
    31    21    28    1
    32    23    33    1
    33    24    27   am
    34    24    28   am
    35    24    30    2
    36    25    27    1
    37     1    34    1
    38     1    35    1
    39     1    36    1
    40     2    37    1
    41     2    38    1
    42     2    39    1
    43     3    40    1
    44     4    41    1
    45     5    42    1
    46     6    43    1
    47     7    44    1
    48     8    45    1
    49     9    46    1
    50    10    47    1
    51    11    48    1
    52    11    49    1
    53    12    50    1
    54    12    51    1
    55    13    52    1
    56    13    53    1
    57    14    54    1
    58    14    55    1
    59    15    56    1
    60    15    57    1
    61    16    58    1
    62    16    59    1
    63    21    60    1
    64    22    61    1
    65    23    62    1
    66    26    63    1
    67    29    64    1
@<TRIPOS>SUBSTRUCTURE
     1 <0>         1 TEMP              0 ****  ****    0 ROOT

