
##########                                Name:          K30_1_3CJO
##########                    Molecular_Weight:             462.535
##########                DOCK_Rotatable_Bonds:                   7
##########                       Formal_Charge:              0.9998
##########                     HBond_Acceptors:                   8
##########                        HBond_Donors:                   2
##########                         Heavy_Atoms:                  33
##########                            HA_RMSDs:               7.907
##########                            HA_RMSDh:               6.513
##########                            HA_RMSDm:               5.483
##########                          Grid_Score:          -92.630600
##########                     Grid_vdw_energy:          -36.856888
##########                      Grid_es_energy:          -55.773708
##########           Internal_energy_repulsive:           44.572704

@<TRIPOS>MOLECULE
K30_1_3CJO
 64 67 1 0 0
SMALL
USER_CHARGES


@<TRIPOS>ATOM
      1 C1         16.0256   16.5723  100.2748 C.3     1  <0>        -0.0430
      2 C2         14.0098   15.3349  106.1092 C.3     1  <0>         0.0050
      3 C3         18.0898   13.4318  110.7750 C.ar    1  <0>        -0.0617
      4 C4         16.7591   13.4389  110.3460 C.ar    1  <0>        -0.0614
      5 C5         18.7801   14.6203  110.7139 C.ar    1  <0>        -0.0614
      6 C6         16.2057   14.6985  109.9210 C.ar    1  <0>        -0.0565
      7 C7         18.2106   15.8734  110.2329 C.ar    1  <0>        -0.0565
      8 C8          9.8756   18.7506  111.0687 C.ar    1  <0>        -0.0237
      9 C9         10.9520   19.1644  111.8495 C.ar    1  <0>        -0.0235
     10 C10        11.3900   17.5963  109.5497 C.ar    1  <0>        -0.0202
     11 C11        16.0290   15.0476  103.8960 C.3     1  <0>         0.0090
     12 C12        16.4993   15.3658  102.4618 C.3     1  <0>        -0.0302
     13 C13        14.9848   17.3916  110.3891 C.3     1  <0>        -0.0167
     14 C14        15.4025   17.6227  102.4430 C.3     1  <0>         0.0015
     15 C15        13.9350   17.6691  108.3460 C.3     1  <0>         0.0241
     16 C16        17.0243   18.4058  108.8178 C.3     1  <0>         0.0698
     17 C17        16.8894   15.9395  109.8548 C.ar    1  <0>        -0.0217
     18 C18        10.1136   17.9700  109.9182 C.ar    1  <0>         0.1238
     19 C19        12.2757   18.8576  111.4606 C.ar    1  <0>         0.1270
     20 C20        12.5270   18.0707  110.3200 C.ar    1  <0>        -0.0048
     21 C21        15.6641   16.3936  104.5897 C.3     1  <0>         0.0680
     22 C22        13.8128   17.7129  109.8095 C.3     1  <0>         0.0051
     23 C23        14.7000   17.2400  103.7444 C.3     1  <0>         0.1588
     24 C24        15.8839   16.4921  107.0164 C.2     1  <0>         0.3056
     25 C25        16.1332   17.2805  109.3505 C.3     1  <0>         0.0875
     26 N1         15.5533   16.3093  101.7074 N.4     1  <0>         0.2352
     27 N2         15.2623   17.0558  108.1473 N.am    1  <0>        -0.2729
     28 N3         15.1682   16.1638  105.9124 N.am    1  <0>        -0.2823
     29 O1         17.7768   18.9855  109.8287 O.3     1  <0>        -0.3926
     30 O2         17.1589   16.3889  106.9642 O.2     1  <0>        -0.2524
     31 F1          9.0705   17.5468  109.2279 F       1  <0>        -0.2055
     32 F2         13.2205   19.3395  112.2619 F       1  <0>        -0.2052
     33 F3         13.6470   16.4528  103.4015 F       1  <0>        -0.2380
     34 H1         15.3195   17.2512   99.7742 H       1  <0>         0.0778
     35 H2         17.0240   17.0332  100.2968 H       1  <0>         0.0778
     36 H3         16.0726   15.6213   99.7240 H       1  <0>         0.0778
     37 H4         13.7796   15.2746  107.1831 H       1  <0>         0.0429
     38 H5         13.1525   15.7701  105.5745 H       1  <0>         0.0429
     39 H6         14.2108   14.3258  105.7202 H       1  <0>         0.0429
     40 H7         18.5573   12.5291  111.1399 H       1  <0>         0.0618
     41 H8         16.1690   12.5344  110.3338 H       1  <0>         0.0618
     42 H9         19.8087   14.6254  111.0430 H       1  <0>         0.0618
     43 H10        15.1676   14.6983  109.6232 H       1  <0>         0.0621
     44 H11        18.8302   16.7559  110.1730 H       1  <0>         0.0621
     45 H12         8.8673   19.0249  111.3418 H       1  <0>         0.0647
     46 H13        10.7744   19.7225  112.7569 H       1  <0>         0.0647
     47 H14        11.5429   16.9552  108.6942 H       1  <0>         0.0650
     48 H15        15.1485   14.3891  103.8658 H       1  <0>         0.0336
     49 H16        16.8330   14.5434  104.4524 H       1  <0>         0.0336
     50 H17        17.4871   15.8460  102.5226 H       1  <0>         0.0815
     51 H18        16.5601   14.4206  101.9024 H       1  <0>         0.0815
     52 H19        15.2435   18.1740  111.1177 H       1  <0>         0.0296
     53 H20        14.8729   16.4215  110.8955 H       1  <0>         0.0296
     54 H21        14.8048   18.3404  101.8619 H       1  <0>         0.0843
     55 H22        16.3806   18.0867  102.6379 H       1  <0>         0.0843
     56 H23        13.1355   17.0684  107.8877 H       1  <0>         0.0471
     57 H24        13.8792   18.6738  107.9018 H       1  <0>         0.0471
     58 H25        17.7075   17.9886  108.0635 H       1  <0>         0.0582
     59 H26        16.3853   19.1784  108.3654 H       1  <0>         0.0582
     60 H27        16.5873   16.9850  104.6787 H       1  <0>         0.0533
     61 H28        13.5386   17.8045  110.8708 H       1  <0>         0.0366
     62 H29        14.3834   18.1314  104.3058 H       1  <0>         0.0724
     63 H30        14.6652   15.8520  101.6618 H       1  <0>         0.2031
     64 H31        18.6438   19.1922  109.4999 H       1  <0>         0.2095
@<TRIPOS>BOND
     1     1    26    1
     2     2    28    1
     3     3     4   ar
     4     3     5   ar
     5     4     6   ar
     6     5     7   ar
     7     6    17   ar
     8     7    17   ar
     9     8     9   ar
    10     8    18   ar
    11     9    19   ar
    12    10    18   ar
    13    10    20   ar
    14    11    12    1
    15    11    21    1
    16    12    26    1
    17    13    22    1
    18    13    25    1
    19    14    23    1
    20    14    26    1
    21    15    22    1
    22    15    27    1
    23    16    25    1
    24    16    29    1
    25    17    25    1
    26    18    31    1
    27    19    20   ar
    28    19    32    1
    29    20    22    1
    30    21    23    1
    31    21    28    1
    32    23    33    1
    33    24    27   am
    34    24    28   am
    35    24    30    2
    36    25    27    1
    37     1    34    1
    38     1    35    1
    39     1    36    1
    40     2    37    1
    41     2    38    1
    42     2    39    1
    43     3    40    1
    44     4    41    1
    45     5    42    1
    46     6    43    1
    47     7    44    1
    48     8    45    1
    49     9    46    1
    50    10    47    1
    51    11    48    1
    52    11    49    1
    53    12    50    1
    54    12    51    1
    55    13    52    1
    56    13    53    1
    57    14    54    1
    58    14    55    1
    59    15    56    1
    60    15    57    1
    61    16    58    1
    62    16    59    1
    63    21    60    1
    64    22    61    1
    65    23    62    1
    66    26    63    1
    67    29    64    1
@<TRIPOS>SUBSTRUCTURE
     1 <0>         1 TEMP              0 ****  ****    0 ROOT

