
##########                                Name:      FAP_A1300_1H00
##########                    Molecular_Weight:             416.451
##########                DOCK_Rotatable_Bonds:                  10
##########                       Formal_Charge:                   1
##########                     HBond_Acceptors:                   9
##########                        HBond_Donors:                   4
##########                         Heavy_Atoms:                  30
##########                            HA_RMSDs:              11.492
##########                            HA_RMSDh:              10.292
##########                            HA_RMSDm:               9.169
##########                          Grid_Score:          -97.138641
##########                     Grid_vdw_energy:          -47.867916
##########                      Grid_es_energy:          -49.270729
##########           Internal_energy_repulsive:            2.343956

@<TRIPOS>MOLECULE
FAP_A1300_1H00
 54 56 1 0 0
SMALL
USER_CHARGES


@<TRIPOS>ATOM
      1 C1         -2.0894   32.3227   10.0196 C.3     1  <0>        -0.0433
      2 C2         -0.2799   31.2120    8.8163 C.3     1  <0>        -0.0433
      3 C3          1.3312   20.2828    8.9602 C.ar    1  <0>        -0.0562
      4 C4          0.2987   19.3129    8.9338 C.ar    1  <0>        -0.0244
      5 C5          1.7737   20.8175   10.1914 C.ar    1  <0>        -0.0244
      6 C6         -0.6534   24.3286   14.7785 C.ar    1  <0>        -0.0381
      7 C7         -3.0477   24.5874   15.2921 C.ar    1  <0>        -0.0381
      8 C8         -0.6255   25.6218   14.2161 C.ar    1  <0>        -0.0299
      9 C9         -3.0208   25.8883   14.7273 C.ar    1  <0>        -0.0299
     10 C10        -1.2701   20.7565   14.1648 C.ar    1  <0>         0.0185
     11 C11        -1.0159   18.9815   16.1969 C.ar    1  <0>         0.1201
     12 C12        -1.5556   29.9338   10.5181 C.3     1  <0>        -0.0036
     13 C13        -1.3399   27.9064   12.2033 C.3     1  <0>         0.0851
     14 C14        -1.8684   23.7953   15.3212 C.ar    1  <0>         0.0325
     15 C15        -1.8045   26.4129   14.1833 C.ar    1  <0>         0.0764
     16 C16        -0.2981   18.8663   10.1419 C.ar    1  <0>         0.1473
     17 C17         1.1888   20.3846   11.4088 C.ar    1  <0>         0.1473
     18 C18        -1.5401   21.1231   15.5283 C.ar    1  <0>         0.1279
     19 C19        -0.8576   19.4026   13.9355 C.ar    1  <0>         0.1280
     20 C20         0.1302   19.3941   11.4005 C.ar    1  <0>         0.1037
     21 C21        -1.1309   29.4026   11.9092 C.3     1  <0>         0.1184
     22 N1         -1.4061   20.2178   16.5206 N.ar    1  <0>        -0.2205
     23 N2         -0.7392   18.5394   14.9676 N.ar    1  <0>        -0.2205
     24 N3         -1.9548   22.4642   15.9136 N.pl3   1  <0>        -0.2993
     25 N4         -0.5411   18.8801   12.6115 N.pl3   1  <0>        -0.2948
     26 N5         -1.0331   31.2789   10.1043 N.4     1  <0>         0.2328
     27 O1          0.1334   29.8346   12.2831 O.3     1  <0>        -0.3842
     28 O2         -1.6663   27.6709   13.6020 O.3     1  <0>        -0.3419
     29 F1         -1.2921   17.9258   10.0726 F       1  <0>        -0.2034
     30 F2          1.6587   20.9397   12.5641 F       1  <0>        -0.2034
     31 H1         -2.6397   32.3663   10.9710 H       1  <0>         0.0777
     32 H2         -1.6243   33.2994    9.8200 H       1  <0>         0.0777
     33 H3         -2.7854   32.0744    9.2048 H       1  <0>         0.0777
     34 H4          0.4990   30.4384    8.8862 H       1  <0>         0.0777
     35 H5         -0.9726   30.9617    7.9992 H       1  <0>         0.0777
     36 H6          0.1884   32.1866    8.6146 H       1  <0>         0.0777
     37 H7          1.7815   20.6147    8.0364 H       1  <0>         0.0619
     38 H8         -0.0362   18.9110    7.9890 H       1  <0>         0.0647
     39 H9          2.5598   21.5580   10.2053 H       1  <0>         0.0647
     40 H10         0.2485   23.7349   14.8004 H       1  <0>         0.0637
     41 H11        -3.9679   24.1975   15.7014 H       1  <0>         0.0637
     42 H12         0.2957   26.0117   13.8090 H       1  <0>         0.0644
     43 H13        -3.9207   26.4851   14.7074 H       1  <0>         0.0644
     44 H14        -1.3727   21.4639   13.3553 H       1  <0>         0.0686
     45 H15        -0.9148   18.2730   17.0057 H       1  <0>         0.1048
     46 H16        -1.1952   29.2078    9.7744 H       1  <0>         0.0841
     47 H17        -2.6533   30.0046   10.5239 H       1  <0>         0.0841
     48 H18        -2.1682   27.5370   11.5808 H       1  <0>         0.0593
     49 H19        -0.4125   27.3665   11.9618 H       1  <0>         0.0593
     50 H20        -1.8785   29.8765   12.5622 H       1  <0>         0.0670
     51 H21        -2.4113   22.4765   16.8033 H       1  <0>         0.1536
     52 H22        -0.8575   17.9387   12.4941 H       1  <0>         0.1537
     53 H23        -0.4052   31.5499   10.8339 H       1  <0>         0.2029
     54 H24         0.4411   29.3167   13.0176 H       1  <0>         0.2101
@<TRIPOS>BOND
     1     1    26    1
     2     2    26    1
     3     3     4   ar
     4     3     5   ar
     5     4    16   ar
     6     5    17   ar
     7     6     8   ar
     8     6    14   ar
     9     7     9   ar
    10     7    14   ar
    11     8    15   ar
    12     9    15   ar
    13    10    18   ar
    14    10    19   ar
    15    11    22   ar
    16    11    23   ar
    17    12    21    1
    18    12    26    1
    19    13    21    1
    20    13    28    1
    21    14    24    1
    22    15    28    1
    23    16    20   ar
    24    16    29    1
    25    17    20   ar
    26    17    30    1
    27    18    22   ar
    28    18    24    1
    29    19    23   ar
    30    19    25    1
    31    20    25    1
    32    21    27    1
    33     1    31    1
    34     1    32    1
    35     1    33    1
    36     2    34    1
    37     2    35    1
    38     2    36    1
    39     3    37    1
    40     4    38    1
    41     5    39    1
    42     6    40    1
    43     7    41    1
    44     8    42    1
    45     9    43    1
    46    10    44    1
    47    11    45    1
    48    12    46    1
    49    12    47    1
    50    13    48    1
    51    13    49    1
    52    21    50    1
    53    24    51    1
    54    25    52    1
    55    26    53    1
    56    27    54    1
@<TRIPOS>SUBSTRUCTURE
     1 <0>         1 TEMP              0 ****  ****    0 ROOT

