
##########                                Name:      FAP_A1300_1H00
##########                    Molecular_Weight:             416.451
##########                DOCK_Rotatable_Bonds:                  10
##########                       Formal_Charge:                   1
##########                     HBond_Acceptors:                   9
##########                        HBond_Donors:                   4
##########                         Heavy_Atoms:                  30
##########                            HA_RMSDs:              11.249
##########                            HA_RMSDh:               9.991
##########                            HA_RMSDm:               8.855
##########                          Grid_Score:          -97.636627
##########                     Grid_vdw_energy:          -47.011810
##########                      Grid_es_energy:          -50.624821
##########           Internal_energy_repulsive:            3.253918

@<TRIPOS>MOLECULE
FAP_A1300_1H00
 54 56 1 0 0
SMALL
USER_CHARGES


@<TRIPOS>ATOM
      1 C1         -2.1822   32.5809   10.1700 C.3     1  <0>        -0.0433
      2 C2         -0.8018   31.1154    8.7906 C.3     1  <0>        -0.0433
      3 C3          2.1890   20.7318    7.1550 C.ar    1  <0>        -0.0562
      4 C4          1.1400   19.7946    6.9855 C.ar    1  <0>        -0.0244
      5 C5          2.5641   21.1531    8.4510 C.ar    1  <0>        -0.0244
      6 C6          0.0913   23.9297   13.3687 C.ar    1  <0>        -0.0381
      7 C7         -1.6987   24.1133   15.0498 C.ar    1  <0>        -0.0381
      8 C8         -0.0403   25.3010   13.0664 C.ar    1  <0>        -0.0299
      9 C9         -1.8315   25.4927   14.7469 C.ar    1  <0>        -0.0299
     10 C10        -0.3235   20.6006   12.5630 C.ar    1  <0>         0.0185
     11 C11         0.0921   18.4160   14.1118 C.ar    1  <0>         0.1201
     12 C12        -1.9695   30.1634   10.7622 C.3     1  <0>        -0.0036
     13 C13        -1.5242   27.9136   12.0799 C.3     1  <0>         0.0851
     14 C14        -0.7404   23.3192   14.3641 C.ar    1  <0>         0.0325
     15 C15        -1.0002   26.0949   13.7487 C.ar    1  <0>         0.0764
     16 C16         0.4589   19.2671    8.1138 C.ar    1  <0>         0.1473
     17 C17         1.8946   20.6383    9.5903 C.ar    1  <0>         0.1473
     18 C18        -0.3787   20.6684   13.9978 C.ar    1  <0>         0.1279
     19 C19        -0.0355   19.3168   11.9933 C.ar    1  <0>         0.1280
     20 C20         0.8180   19.6798    9.4355 C.ar    1  <0>         0.1037
     21 C21        -1.1979   29.4027   11.8684 C.3     1  <0>         0.1184
     22 N1         -0.1685   19.5637   14.7445 N.ar    1  <0>        -0.2205
     23 N2          0.1675   18.2449   12.7896 N.ar    1  <0>        -0.2205
     24 N3         -0.6481   21.9056   14.7159 N.pl3   1  <0>        -0.2993
     25 N4          0.0610   19.0868   10.5566 N.pl3   1  <0>        -0.2948
     26 N5         -1.3107   31.3755   10.1705 N.4     1  <0>         0.2328
     27 O1          0.1692   29.6343   11.8222 O.3     1  <0>        -0.3842
     28 O2         -1.0492   27.4340   13.3695 O.3     1  <0>        -0.3419
     29 F1         -0.5483   18.3616    7.9064 F       1  <0>        -0.2034
     30 F2          2.3022   21.0853   10.8142 F       1  <0>        -0.2034
     31 H1         -2.5531   32.7663   11.1888 H       1  <0>         0.0777
     32 H2         -1.6037   33.4513    9.8265 H       1  <0>         0.0777
     33 H3         -3.0343   32.4168    9.4940 H       1  <0>         0.0777
     34 H4         -0.1585   30.2232    8.7986 H       1  <0>         0.0777
     35 H5         -1.6514   30.9486    8.1120 H       1  <0>         0.0777
     36 H6         -0.2209   31.9831    8.4446 H       1  <0>         0.0777
     37 H7          2.7035   21.1257    6.2910 H       1  <0>         0.0619
     38 H8          0.8570   19.4795    5.9920 H       1  <0>         0.0647
     39 H9          3.3631   21.8692    8.5740 H       1  <0>         0.0647
     40 H10         0.8251   23.3343   12.8458 H       1  <0>         0.0637
     41 H11        -2.3281   23.6651   15.8043 H       1  <0>         0.0637
     42 H12         0.5911   25.7490   12.3133 H       1  <0>         0.0644
     43 H13        -2.5623   26.0908   15.2711 H       1  <0>         0.0644
     44 H14        -0.4903   21.4713   11.9463 H       1  <0>         0.0686
     45 H15         0.2574   17.5445   14.7279 H       1  <0>         0.1048
     46 H16        -2.1316   29.4529    9.9384 H       1  <0>         0.0841
     47 H17        -2.9180   30.4994   11.2067 H       1  <0>         0.0841
     48 H18        -2.6153   27.7817   12.0347 H       1  <0>         0.0593
     49 H19        -1.0371   27.3294   11.2852 H       1  <0>         0.0593
     50 H20        -1.6083   29.8642   12.7786 H       1  <0>         0.0670
     51 H21        -0.8099   21.7484   15.6901 H       1  <0>         0.1536
     52 H22        -0.5339   18.3416   10.2551 H       1  <0>         0.1537
     53 H23        -0.5352   31.5697   10.7714 H       1  <0>         0.2029
     54 H24         0.6128   29.0327   12.4084 H       1  <0>         0.2101
@<TRIPOS>BOND
     1     1    26    1
     2     2    26    1
     3     3     4   ar
     4     3     5   ar
     5     4    16   ar
     6     5    17   ar
     7     6     8   ar
     8     6    14   ar
     9     7     9   ar
    10     7    14   ar
    11     8    15   ar
    12     9    15   ar
    13    10    18   ar
    14    10    19   ar
    15    11    22   ar
    16    11    23   ar
    17    12    21    1
    18    12    26    1
    19    13    21    1
    20    13    28    1
    21    14    24    1
    22    15    28    1
    23    16    20   ar
    24    16    29    1
    25    17    20   ar
    26    17    30    1
    27    18    22   ar
    28    18    24    1
    29    19    23   ar
    30    19    25    1
    31    20    25    1
    32    21    27    1
    33     1    31    1
    34     1    32    1
    35     1    33    1
    36     2    34    1
    37     2    35    1
    38     2    36    1
    39     3    37    1
    40     4    38    1
    41     5    39    1
    42     6    40    1
    43     7    41    1
    44     8    42    1
    45     9    43    1
    46    10    44    1
    47    11    45    1
    48    12    46    1
    49    12    47    1
    50    13    48    1
    51    13    49    1
    52    21    50    1
    53    24    51    1
    54    25    52    1
    55    26    53    1
    56    27    54    1
@<TRIPOS>SUBSTRUCTURE
     1 <0>         1 TEMP              0 ****  ****    0 ROOT

