
##########                                Name:      FAP_A1300_1H00
##########                    Molecular_Weight:             416.451
##########                DOCK_Rotatable_Bonds:                  10
##########                       Formal_Charge:                   1
##########                     HBond_Acceptors:                   9
##########                        HBond_Donors:                   4
##########                         Heavy_Atoms:                  30
##########                            HA_RMSDs:               9.830
##########                            HA_RMSDh:               8.576
##########                            HA_RMSDm:               7.487
##########                          Grid_Score:          -97.766151
##########                     Grid_vdw_energy:          -37.610363
##########                      Grid_es_energy:          -60.155788
##########           Internal_energy_repulsive:            2.204520

@<TRIPOS>MOLECULE
FAP_A1300_1H00
 54 56 1 0 0
SMALL
USER_CHARGES


@<TRIPOS>ATOM
      1 C1         -4.3033   24.5541   14.7335 C.3     1  <0>        -0.0433
      2 C2         -3.2298   26.2588   16.1109 C.3     1  <0>        -0.0433
      3 C3          4.7653   28.4358    7.1711 C.ar    1  <0>        -0.0562
      4 C4          4.4831   28.2108    5.8010 C.ar    1  <0>        -0.0244
      5 C5          5.1926   27.3691    7.9940 C.ar    1  <0>        -0.0244
      6 C6          3.0106   22.0717   10.1378 C.ar    1  <0>        -0.0381
      7 C7          1.0950   20.6502    9.5265 C.ar    1  <0>        -0.0381
      8 C8          2.3489   22.4706   11.3178 C.ar    1  <0>        -0.0299
      9 C9          0.4288   21.0502   10.7132 C.ar    1  <0>        -0.0299
     10 C10         4.0165   22.6886    6.7444 C.ar    1  <0>         0.0185
     11 C11         5.7069   20.9250    5.5711 C.ar    1  <0>         0.1201
     12 C12        -1.8841   25.0758   14.3943 C.3     1  <0>        -0.0036
     13 C13        -0.0665   23.7603   12.9934 C.3     1  <0>         0.0851
     14 C14         2.3880   21.1572    9.2261 C.ar    1  <0>         0.0325
     15 C15         1.0551   21.9672   11.6173 C.ar    1  <0>         0.0764
     16 C16         4.6300   26.9146    5.2410 C.ar    1  <0>         0.1473
     17 C17         5.3442   26.0669    7.4529 C.ar    1  <0>         0.1473
     18 C18         3.9688   21.2827    7.0405 C.ar    1  <0>         0.1279
     19 C19         5.0065   23.1100    5.7967 C.ar    1  <0>         0.1280
     20 C20         5.0583   25.8182    6.0535 C.ar    1  <0>         0.1037
     21 C21        -0.9908   23.8228   14.2225 C.3     1  <0>         0.1184
     22 N1          4.8226   20.4267    6.4401 N.ar    1  <0>        -0.2205
     23 N2          5.8361   22.2090    5.2275 N.ar    1  <0>        -0.2205
     24 N3          3.0256   20.7118    7.9909 N.pl3   1  <0>        -0.2993
     25 N4          5.1850   24.5011    5.3973 N.pl3   1  <0>        -0.2948
     26 N5         -3.0259   24.9814   15.3642 N.4     1  <0>         0.2328
     27 O1         -0.3276   23.4750   15.3904 O.3     1  <0>        -0.3842
     28 O2          0.4919   22.4295   12.8041 O.3     1  <0>        -0.3419
     29 F1          4.3486   26.7401    3.9114 F       1  <0>        -0.2034
     30 F2          5.7586   25.0790    8.2990 F       1  <0>        -0.2034
     31 H1         -4.1457   23.6133   14.1857 H       1  <0>         0.0777
     32 H2         -5.0639   24.4010   15.5133 H       1  <0>         0.0777
     33 H3         -4.6454   25.3319   14.0350 H       1  <0>         0.0777
     34 H4         -2.2816   26.5686   16.5744 H       1  <0>         0.0777
     35 H5         -3.5700   27.0398   15.4149 H       1  <0>         0.0777
     36 H6         -3.9885   26.1089   16.8932 H       1  <0>         0.0777
     37 H7          4.6534   29.4258    7.5881 H       1  <0>         0.0619
     38 H8          4.1542   29.0302    5.1791 H       1  <0>         0.0647
     39 H9          5.4045   27.5461    9.0381 H       1  <0>         0.0647
     40 H10         3.9949   22.4585    9.9192 H       1  <0>         0.0637
     41 H11         0.6177   19.9578    8.8489 H       1  <0>         0.0637
     42 H12         2.8278   23.1613   11.9960 H       1  <0>         0.0644
     43 H13        -0.5541   20.6619   10.9356 H       1  <0>         0.0644
     44 H14         3.3419   23.3908    7.2114 H       1  <0>         0.0686
     45 H15         6.3808   20.2232    5.1024 H       1  <0>         0.1048
     46 H16        -1.2315   25.8885   14.7461 H       1  <0>         0.0841
     47 H17        -2.3189   25.2967   13.4083 H       1  <0>         0.0841
     48 H18        -0.6493   24.0286   12.0999 H       1  <0>         0.0593
     49 H19         0.7595   24.4723   13.1367 H       1  <0>         0.0593
     50 H20        -1.7392   23.0501   13.9925 H       1  <0>         0.0670
     51 H21         2.7455   19.7867    7.7346 H       1  <0>         0.1536
     52 H22         5.4625   24.5839    4.4401 H       1  <0>         0.1537
     53 H23        -2.7597   24.2664   16.0107 H       1  <0>         0.2029
     54 H24         0.4387   22.9556   15.1772 H       1  <0>         0.2101
@<TRIPOS>BOND
     1     1    26    1
     2     2    26    1
     3     3     4   ar
     4     3     5   ar
     5     4    16   ar
     6     5    17   ar
     7     6     8   ar
     8     6    14   ar
     9     7     9   ar
    10     7    14   ar
    11     8    15   ar
    12     9    15   ar
    13    10    18   ar
    14    10    19   ar
    15    11    22   ar
    16    11    23   ar
    17    12    21    1
    18    12    26    1
    19    13    21    1
    20    13    28    1
    21    14    24    1
    22    15    28    1
    23    16    20   ar
    24    16    29    1
    25    17    20   ar
    26    17    30    1
    27    18    22   ar
    28    18    24    1
    29    19    23   ar
    30    19    25    1
    31    20    25    1
    32    21    27    1
    33     1    31    1
    34     1    32    1
    35     1    33    1
    36     2    34    1
    37     2    35    1
    38     2    36    1
    39     3    37    1
    40     4    38    1
    41     5    39    1
    42     6    40    1
    43     7    41    1
    44     8    42    1
    45     9    43    1
    46    10    44    1
    47    11    45    1
    48    12    46    1
    49    12    47    1
    50    13    48    1
    51    13    49    1
    52    21    50    1
    53    24    51    1
    54    25    52    1
    55    26    53    1
    56    27    54    1
@<TRIPOS>SUBSTRUCTURE
     1 <0>         1 TEMP              0 ****  ****    0 ROOT

