
##########                                Name:      FAP_A1300_1H00
##########                    Molecular_Weight:             416.451
##########                DOCK_Rotatable_Bonds:                  10
##########                       Formal_Charge:                   1
##########                     HBond_Acceptors:                   9
##########                        HBond_Donors:                   4
##########                         Heavy_Atoms:                  30
##########                            HA_RMSDs:               8.735
##########                            HA_RMSDh:               7.661
##########                            HA_RMSDm:               6.786
##########                          Grid_Score:          -97.034760
##########                     Grid_vdw_energy:          -39.687973
##########                      Grid_es_energy:          -57.346783
##########           Internal_energy_repulsive:           11.472720

@<TRIPOS>MOLECULE
FAP_A1300_1H00
 54 56 1 0 0
SMALL
USER_CHARGES


@<TRIPOS>ATOM
      1 C1         -3.1930   22.3392   16.0622 C.3     1  <0>        -0.0433
      2 C2         -4.2857   24.5212   16.0364 C.3     1  <0>        -0.0433
      3 C3          2.4858   29.9795    7.9720 C.ar    1  <0>        -0.0562
      4 C4          3.1669   30.0999    6.7354 C.ar    1  <0>        -0.0244
      5 C5          2.7023   28.8522    8.7965 C.ar    1  <0>        -0.0244
      6 C6          3.0164   23.3064   10.1074 C.ar    1  <0>        -0.0381
      7 C7          2.0132   21.2555    9.1848 C.ar    1  <0>        -0.0381
      8 C8          2.0768   23.3031   11.1593 C.ar    1  <0>        -0.0299
      9 C9          1.0681   21.2508   10.2425 C.ar    1  <0>        -0.0299
     10 C10         4.5082   24.6346    7.3856 C.ar    1  <0>         0.0185
     11 C11         6.3185   23.6172    5.6443 C.ar    1  <0>         0.1201
     12 C12        -2.4554   24.0730   14.4220 C.3     1  <0>        -0.0036
     13 C13        -0.5730   23.5548   12.6374 C.3     1  <0>         0.0851
     14 C14         2.9928   22.2818    9.1050 C.ar    1  <0>         0.0325
     15 C15         1.0951   22.2797   11.2380 C.ar    1  <0>         0.0764
     16 C16         4.0749   29.0931    6.3146 C.ar    1  <0>         0.1473
     17 C17         3.6048   27.8354    8.3926 C.ar    1  <0>         0.1473
     18 C18         4.6944   23.2178    7.2289 C.ar    1  <0>         0.1279
     19 C19         5.3315   25.4822    6.5735 C.ar    1  <0>         0.1280
     20 C20         4.3090   27.9414    7.1299 C.ar    1  <0>         0.1037
     21 C21        -1.0330   23.5490   14.1062 C.3     1  <0>         0.1184
     22 N1          5.6030   22.7389    6.3530 N.ar    1  <0>        -0.2205
     23 N2          6.2257   24.9475    5.7141 N.ar    1  <0>        -0.2205
     24 N3          3.9392   22.2370    7.9948 N.pl3   1  <0>        -0.2993
     25 N4          5.2664   26.9382    6.6215 N.pl3   1  <0>        -0.2948
     26 N5         -3.0074   23.7895   15.7889 N.4     1  <0>         0.2328
     27 O1         -0.0694   24.0737   14.9552 O.3     1  <0>        -0.3842
     28 O2          0.2149   22.3748   12.3130 O.3     1  <0>        -0.3419
     29 F1          4.7144   29.2489    5.1128 F       1  <0>        -0.2034
     30 F2          3.7695   26.7714    9.2320 F       1  <0>        -0.2034
     31 H1         -2.2481   21.8069   15.8779 H       1  <0>         0.0777
     32 H2         -3.4938   22.1995   17.1110 H       1  <0>         0.0777
     33 H3         -3.9745   21.9386   15.3999 H       1  <0>         0.0777
     34 H4         -4.1410   25.5924   15.8324 H       1  <0>         0.0777
     35 H5         -5.0692   24.1245   15.3741 H       1  <0>         0.0777
     36 H6         -4.5885   24.3854   17.0852 H       1  <0>         0.0777
     37 H7          1.7989   30.7517    8.2855 H       1  <0>         0.0619
     38 H8          2.9942   30.9628    6.1093 H       1  <0>         0.0647
     39 H9          2.1790   28.7647    9.7372 H       1  <0>         0.0647
     40 H10         3.7602   24.0878   10.0567 H       1  <0>         0.0637
     41 H11         1.9882   20.4763    8.4374 H       1  <0>         0.0637
     42 H12         2.1039   24.0814   11.9075 H       1  <0>         0.0644
     43 H13         0.3255   20.4684   10.2972 H       1  <0>         0.0644
     44 H14         3.7859   25.0394    8.0789 H       1  <0>         0.0686
     45 H15         7.0398   23.2130    4.9495 H       1  <0>         0.1048
     46 H16        -2.4261   25.1668   14.3091 H       1  <0>         0.0841
     47 H17        -3.1376   23.6040   13.6976 H       1  <0>         0.0841
     48 H18        -1.4618   23.5746   11.9896 H       1  <0>         0.0593
     49 H19         0.0437   24.4491   12.4645 H       1  <0>         0.0593
     50 H20        -1.1447   22.4743   14.3125 H       1  <0>         0.0670
     51 H21         4.1113   21.3023    7.6837 H       1  <0>         0.1536
     52 H22         6.0709   27.3636    6.2068 H       1  <0>         0.1537
     53 H23        -2.3126   24.1253   16.4249 H       1  <0>         0.2029
     54 H24         0.7496   23.6085   14.8314 H       1  <0>         0.2101
@<TRIPOS>BOND
     1     1    26    1
     2     2    26    1
     3     3     4   ar
     4     3     5   ar
     5     4    16   ar
     6     5    17   ar
     7     6     8   ar
     8     6    14   ar
     9     7     9   ar
    10     7    14   ar
    11     8    15   ar
    12     9    15   ar
    13    10    18   ar
    14    10    19   ar
    15    11    22   ar
    16    11    23   ar
    17    12    21    1
    18    12    26    1
    19    13    21    1
    20    13    28    1
    21    14    24    1
    22    15    28    1
    23    16    20   ar
    24    16    29    1
    25    17    20   ar
    26    17    30    1
    27    18    22   ar
    28    18    24    1
    29    19    23   ar
    30    19    25    1
    31    20    25    1
    32    21    27    1
    33     1    31    1
    34     1    32    1
    35     1    33    1
    36     2    34    1
    37     2    35    1
    38     2    36    1
    39     3    37    1
    40     4    38    1
    41     5    39    1
    42     6    40    1
    43     7    41    1
    44     8    42    1
    45     9    43    1
    46    10    44    1
    47    11    45    1
    48    12    46    1
    49    12    47    1
    50    13    48    1
    51    13    49    1
    52    21    50    1
    53    24    51    1
    54    25    52    1
    55    26    53    1
    56    27    54    1
@<TRIPOS>SUBSTRUCTURE
     1 <0>         1 TEMP              0 ****  ****    0 ROOT

