
##########                                Name:      FAP_A1300_1H00
##########                    Molecular_Weight:             416.451
##########                DOCK_Rotatable_Bonds:                  10
##########                       Formal_Charge:                   1
##########                     HBond_Acceptors:                   9
##########                        HBond_Donors:                   4
##########                         Heavy_Atoms:                  30
##########                            HA_RMSDs:              10.617
##########                            HA_RMSDh:               9.124
##########                            HA_RMSDm:               7.877
##########                          Grid_Score:          -95.861481
##########                     Grid_vdw_energy:          -44.632771
##########                      Grid_es_energy:          -51.228714
##########           Internal_energy_repulsive:            2.370772

@<TRIPOS>MOLECULE
FAP_A1300_1H00
 54 56 1 0 0
SMALL
USER_CHARGES


@<TRIPOS>ATOM
      1 C1         -2.4009   32.4054   10.8982 C.3     1  <0>        -0.0433
      2 C2         -1.2775   32.2747    8.7356 C.3     1  <0>        -0.0433
      3 C3          4.3203   24.4975    4.5245 C.ar    1  <0>        -0.0562
      4 C4          3.7433   23.3173    3.9937 C.ar    1  <0>        -0.0244
      5 C5          4.8050   24.5174    5.8520 C.ar    1  <0>        -0.0244
      6 C6          2.1895   24.2107   11.2659 C.ar    1  <0>        -0.0381
      7 C7         -0.0453   23.3171   11.7864 C.ar    1  <0>        -0.0381
      8 C8          1.6949   25.5279   11.3632 C.ar    1  <0>        -0.0299
      9 C9         -0.5438   24.6414   11.8850 C.ar    1  <0>        -0.0299
     10 C10         2.8533   21.4141    9.1032 C.ar    1  <0>         0.0185
     11 C11         3.3642   18.8520    9.8235 C.ar    1  <0>         0.1201
     12 C12        -1.7005   30.1821   10.0001 C.3     1  <0>        -0.0036
     13 C13        -0.6204   27.8514   10.6309 C.3     1  <0>         0.0851
     14 C14         1.3220   23.0885   11.4743 C.ar    1  <0>         0.0325
     15 C15         0.3277   25.7574   11.6717 C.ar    1  <0>         0.0764
     16 C16         3.6496   22.1440    4.7871 C.ar    1  <0>         0.1473
     17 C17         4.7191   23.3554    6.6606 C.ar    1  <0>         0.1473
     18 C18         2.4620   20.8960   10.3857 C.ar    1  <0>         0.1279
     19 C19         3.5297   20.5050    8.2247 C.ar    1  <0>         0.1280
     20 C20         4.1304   22.1396    6.1343 C.ar    1  <0>         0.1037
     21 C21        -1.0526   29.2634   11.0649 C.3     1  <0>         0.1184
     22 N1          2.7286   19.6150   10.7175 N.ar    1  <0>        -0.2205
     23 N2          3.7713   19.2333    8.6102 N.ar    1  <0>        -0.2205
     24 N3          1.7795   21.7054   11.3848 N.pl3   1  <0>        -0.2993
     25 N4          3.9953   20.8808    6.8949 N.pl3   1  <0>        -0.2948
     26 N5         -1.4078   31.6518   10.0868 N.4     1  <0>         0.2328
     27 O1         -0.0659   29.9074   11.7974 O.3     1  <0>        -0.3842
     28 O2         -0.0555   27.0946   11.7384 O.3     1  <0>        -0.3419
     29 F1          3.0865   21.0234    4.2351 F       1  <0>        -0.2034
     30 F2          5.2034   23.4388    7.9343 F       1  <0>        -0.2034
     31 H1         -2.4917   31.9413   11.8914 H       1  <0>         0.0777
     32 H2         -2.0677   33.4478   11.0098 H       1  <0>         0.0777
     33 H3         -3.3780   32.3846   10.3934 H       1  <0>         0.0777
     34 H4         -0.5420   31.7126    8.1416 H       1  <0>         0.0777
     35 H5         -2.2526   32.2538    8.2268 H       1  <0>         0.0777
     36 H6         -0.9423   33.3169    8.8433 H       1  <0>         0.0777
     37 H7          4.3900   25.3847    3.9127 H       1  <0>         0.0619
     38 H8          3.3725   23.3105    2.9793 H       1  <0>         0.0647
     39 H9          5.2421   25.4204    6.2520 H       1  <0>         0.0647
     40 H10         3.2310   24.0459   11.0325 H       1  <0>         0.0637
     41 H11        -0.7074   22.4795   11.9491 H       1  <0>         0.0637
     42 H12         2.3582   26.3650   11.2025 H       1  <0>         0.0644
     43 H13        -1.5842   24.8086   12.1218 H       1  <0>         0.0644
     44 H14         2.6484   22.4349    8.8163 H       1  <0>         0.0686
     45 H15         3.5679   17.8306   10.1091 H       1  <0>         0.1048
     46 H16        -1.3379   29.8408    9.0193 H       1  <0>         0.0841
     47 H17        -2.7901   30.0663   10.0976 H       1  <0>         0.0841
     48 H18        -1.5015   27.3144   10.2498 H       1  <0>         0.0593
     49 H19         0.1403   27.9424    9.8416 H       1  <0>         0.0593
     50 H20        -1.9083   29.0544   11.7238 H       1  <0>         0.0670
     51 H21         1.5735   21.1859   12.2140 H       1  <0>         0.1536
     52 H22         4.2990   20.0883    6.3659 H       1  <0>         0.1537
     53 H23        -0.5288   31.7147   10.5595 H       1  <0>         0.2029
     54 H24         0.5908   29.2766   12.0680 H       1  <0>         0.2101
@<TRIPOS>BOND
     1     1    26    1
     2     2    26    1
     3     3     4   ar
     4     3     5   ar
     5     4    16   ar
     6     5    17   ar
     7     6     8   ar
     8     6    14   ar
     9     7     9   ar
    10     7    14   ar
    11     8    15   ar
    12     9    15   ar
    13    10    18   ar
    14    10    19   ar
    15    11    22   ar
    16    11    23   ar
    17    12    21    1
    18    12    26    1
    19    13    21    1
    20    13    28    1
    21    14    24    1
    22    15    28    1
    23    16    20   ar
    24    16    29    1
    25    17    20   ar
    26    17    30    1
    27    18    22   ar
    28    18    24    1
    29    19    23   ar
    30    19    25    1
    31    20    25    1
    32    21    27    1
    33     1    31    1
    34     1    32    1
    35     1    33    1
    36     2    34    1
    37     2    35    1
    38     2    36    1
    39     3    37    1
    40     4    38    1
    41     5    39    1
    42     6    40    1
    43     7    41    1
    44     8    42    1
    45     9    43    1
    46    10    44    1
    47    11    45    1
    48    12    46    1
    49    12    47    1
    50    13    48    1
    51    13    49    1
    52    21    50    1
    53    24    51    1
    54    25    52    1
    55    26    53    1
    56    27    54    1
@<TRIPOS>SUBSTRUCTURE
     1 <0>         1 TEMP              0 ****  ****    0 ROOT

