
##########                                Name:      FAP_A1300_1H00
##########                    Molecular_Weight:             416.451
##########                DOCK_Rotatable_Bonds:                  10
##########                       Formal_Charge:                   1
##########                     HBond_Acceptors:                   9
##########                        HBond_Donors:                   4
##########                         Heavy_Atoms:                  30
##########                            HA_RMSDs:              11.451
##########                            HA_RMSDh:              10.261
##########                            HA_RMSDm:               9.028
##########                          Grid_Score:          -96.764984
##########                     Grid_vdw_energy:          -46.040550
##########                      Grid_es_energy:          -50.724430
##########           Internal_energy_repulsive:            2.655388

@<TRIPOS>MOLECULE
FAP_A1300_1H00
 54 56 1 0 0
SMALL
USER_CHARGES


@<TRIPOS>ATOM
      1 C1         -2.3868   32.5664   10.7092 C.3     1  <0>        -0.0433
      2 C2         -1.5397   31.6400    8.6163 C.3     1  <0>        -0.0433
      3 C3          1.5389   20.2934    8.4866 C.ar    1  <0>        -0.0562
      4 C4          0.5035   19.3278    8.4308 C.ar    1  <0>        -0.0244
      5 C5          1.9877   20.7839    9.7338 C.ar    1  <0>        -0.0244
      6 C6         -0.1990   24.0410   14.1219 C.ar    1  <0>        -0.0381
      7 C7         -2.3444   24.6407   15.1714 C.ar    1  <0>        -0.0381
      8 C8         -0.0880   25.3409   13.5860 C.ar    1  <0>        -0.0299
      9 C9         -2.2336   25.9485   14.6334 C.ar    1  <0>        -0.0299
     10 C10        -0.9128   20.6495   13.7026 C.ar    1  <0>         0.0185
     11 C11        -1.0878   18.7533   15.6309 C.ar    1  <0>         0.1201
     12 C12        -1.9771   30.1094   10.5198 C.3     1  <0>        -0.0036
     13 C13        -1.4099   27.9614   11.9553 C.3     1  <0>         0.0851
     14 C14        -1.3325   23.6753   14.9200 C.ar    1  <0>         0.0325
     15 C15        -1.1006   26.3054   13.8339 C.ar    1  <0>         0.0764
     16 C16        -0.0899   18.8412    9.6250 C.ar    1  <0>         0.1473
     17 C17         1.4063   20.3108   10.9377 C.ar    1  <0>         0.1473
     18 C18        -1.2456   20.9802   15.0614 C.ar    1  <0>         0.1279
     19 C19        -0.6766   19.2637   13.4204 C.ar    1  <0>         0.1280
     20 C20         0.3448   19.3240   10.8994 C.ar    1  <0>         0.1037
     21 C21        -1.2292   29.4710   11.7158 C.3     1  <0>         0.1184
     22 N1         -1.3267   20.0147   16.0013 N.ar    1  <0>        -0.2205
     23 N2         -0.7706   18.3401   14.4013 N.ar    1  <0>        -0.2205
     24 N3         -1.4992   22.3455   15.4979 N.pl3   1  <0>        -0.2993
     25 N4         -0.3233   18.7702   12.0945 N.pl3   1  <0>        -0.2948
     26 N5         -1.5595   31.4895   10.1021 N.4     1  <0>         0.2328
     27 O1          0.1035   29.8517   11.7776 O.3     1  <0>        -0.3842
     28 O2         -0.8935   27.5545   13.2539 O.3     1  <0>        -0.3419
     29 F1         -1.0868   17.9064    9.5271 F       1  <0>        -0.2034
     30 F2          1.8822   20.8242   12.1097 F       1  <0>        -0.2034
     31 H1         -2.3968   32.4493   11.8029 H       1  <0>         0.0777
     32 H2         -1.9604   33.5466   10.4494 H       1  <0>         0.0777
     33 H3         -3.4149   32.4998   10.3240 H       1  <0>         0.0777
     34 H4         -0.9266   30.8408    8.1744 H       1  <0>         0.0777
     35 H5         -2.5664   31.5718    8.2273 H       1  <0>         0.0777
     36 H6         -1.1118   32.6185    8.3528 H       1  <0>         0.0777
     37 H7          1.9866   20.6558    7.5730 H       1  <0>         0.0619
     38 H8          0.1638   18.9597    7.4739 H       1  <0>         0.0647
     39 H9          2.7759   21.5213    9.7702 H       1  <0>         0.0647
     40 H10         0.5767   23.3146   13.9294 H       1  <0>         0.0637
     41 H11        -3.2010   24.3777   15.7743 H       1  <0>         0.0637
     42 H12         0.7700   25.6037   12.9851 H       1  <0>         0.0644
     43 H13        -3.0064   26.6775   14.8276 H       1  <0>         0.0644
     44 H14        -0.8444   21.4054   12.9344 H       1  <0>         0.0686
     45 H15        -1.1577   17.9966   16.3983 H       1  <0>         0.1048
     46 H16        -1.8171   29.4507    9.6535 H       1  <0>         0.0841
     47 H17        -3.0392   30.1674   10.8003 H       1  <0>         0.0841
     48 H18        -2.4830   27.7234   11.9121 H       1  <0>         0.0593
     49 H19        -0.8667   27.4125   11.1720 H       1  <0>         0.0593
     50 H20        -1.7665   29.9097   12.5695 H       1  <0>         0.0670
     51 H21        -1.8820   22.3810   16.4211 H       1  <0>         0.1536
     52 H22        -0.6031   17.8194   11.9612 H       1  <0>         0.1537
     53 H23        -0.6288   31.5968   10.4518 H       1  <0>         0.2029
     54 H24         0.5568   29.3164   12.4182 H       1  <0>         0.2101
@<TRIPOS>BOND
     1     1    26    1
     2     2    26    1
     3     3     4   ar
     4     3     5   ar
     5     4    16   ar
     6     5    17   ar
     7     6     8   ar
     8     6    14   ar
     9     7     9   ar
    10     7    14   ar
    11     8    15   ar
    12     9    15   ar
    13    10    18   ar
    14    10    19   ar
    15    11    22   ar
    16    11    23   ar
    17    12    21    1
    18    12    26    1
    19    13    21    1
    20    13    28    1
    21    14    24    1
    22    15    28    1
    23    16    20   ar
    24    16    29    1
    25    17    20   ar
    26    17    30    1
    27    18    22   ar
    28    18    24    1
    29    19    23   ar
    30    19    25    1
    31    20    25    1
    32    21    27    1
    33     1    31    1
    34     1    32    1
    35     1    33    1
    36     2    34    1
    37     2    35    1
    38     2    36    1
    39     3    37    1
    40     4    38    1
    41     5    39    1
    42     6    40    1
    43     7    41    1
    44     8    42    1
    45     9    43    1
    46    10    44    1
    47    11    45    1
    48    12    46    1
    49    12    47    1
    50    13    48    1
    51    13    49    1
    52    21    50    1
    53    24    51    1
    54    25    52    1
    55    26    53    1
    56    27    54    1
@<TRIPOS>SUBSTRUCTURE
     1 <0>         1 TEMP              0 ****  ****    0 ROOT

