
##########                                Name:      FAP_A1300_1H00
##########                    Molecular_Weight:             416.451
##########                DOCK_Rotatable_Bonds:                  10
##########                       Formal_Charge:                   1
##########                     HBond_Acceptors:                   9
##########                        HBond_Donors:                   4
##########                         Heavy_Atoms:                  30
##########                            HA_RMSDs:               9.497
##########                            HA_RMSDh:               8.312
##########                            HA_RMSDm:               7.189
##########                          Grid_Score:          -97.940903
##########                     Grid_vdw_energy:          -37.982655
##########                      Grid_es_energy:          -59.958252
##########           Internal_energy_repulsive:            8.523437

@<TRIPOS>MOLECULE
FAP_A1300_1H00
 54 56 1 0 0
SMALL
USER_CHARGES


@<TRIPOS>ATOM
      1 C1         -4.1882   24.8644   15.0785 C.3     1  <0>        -0.0433
      2 C2         -2.4174   26.5047   15.4382 C.3     1  <0>        -0.0433
      3 C3          4.1360   28.8537    7.1745 C.ar    1  <0>        -0.0562
      4 C4          4.2003   28.8162    5.7597 C.ar    1  <0>        -0.0244
      5 C5          4.3510   27.6773    7.9279 C.ar    1  <0>        -0.0244
      6 C6          3.0623   22.2836    9.7280 C.ar    1  <0>        -0.0381
      7 C7          1.5244   20.6493    8.7143 C.ar    1  <0>        -0.0381
      8 C8          2.1147   22.5640   10.7344 C.ar    1  <0>        -0.0299
      9 C9          0.5708   20.9300    9.7262 C.ar    1  <0>        -0.0299
     10 C10         4.2793   23.1532    6.4253 C.ar    1  <0>         0.0185
     11 C11         5.6638   21.6375    4.6561 C.ar    1  <0>         0.1201
     12 C12        -2.1979   24.8875   13.5691 C.3     1  <0>        -0.0036
     13 C13        -0.4496   23.6058   12.0534 C.3     1  <0>         0.0851
     14 C14         2.7755   21.3230    8.7032 C.ar    1  <0>         0.0325
     15 C15         0.8626   21.8937   10.7443 C.ar    1  <0>         0.0764
     16 C16         4.4845   27.5996    5.0856 C.ar    1  <0>         0.1473
     17 C17         4.6350   26.4521    7.2724 C.ar    1  <0>         0.1473
     18 C18         4.3592   21.7237    6.5532 C.ar    1  <0>         0.1279
     19 C19         4.9717   23.7363    5.3134 C.ar    1  <0>         0.1280
     20 C20         4.7031   26.3950    5.8254 C.ar    1  <0>         0.1037
     21 C21        -1.2344   23.6911   13.3747 C.3     1  <0>         0.1184
     22 N1          5.0553   20.9935    5.6563 N.ar    1  <0>        -0.2205
     23 N2          5.6541   22.9565    4.4473 N.ar    1  <0>        -0.2205
     24 N3          3.7177   20.9951    7.6379 N.pl3   1  <0>        -0.2993
     25 N4          4.9914   25.1706    5.0512 N.pl3   1  <0>        -0.2948
     26 N5         -2.7297   25.1274   14.9522 N.4     1  <0>         0.2328
     27 O1         -0.4210   23.4752   14.4777 O.3     1  <0>        -0.3842
     28 O2          0.0006   22.2492   11.7788 O.3     1  <0>        -0.3419
     29 F1          4.5395   27.6069    3.7166 F       1  <0>        -0.2034
     30 F2          4.8315   25.3511    8.0554 F       1  <0>        -0.2034
     31 H1         -4.4107   23.8489   14.7190 H       1  <0>         0.0777
     32 H2         -4.4867   24.9533   16.1335 H       1  <0>         0.0777
     33 H3         -4.7461   25.5967   14.4765 H       1  <0>         0.0777
     34 H4         -1.3378   26.6921   15.3419 H       1  <0>         0.0777
     35 H5         -2.9722   27.2401   14.8368 H       1  <0>         0.0777
     36 H6         -2.7127   26.5966   16.4938 H       1  <0>         0.0777
     37 H7          3.9220   29.7843    7.6791 H       1  <0>         0.0619
     38 H8          4.0321   29.7185    5.1906 H       1  <0>         0.0647
     39 H9          4.2989   27.7114    9.0061 H       1  <0>         0.0647
     40 H10         4.0124   22.7971    9.7294 H       1  <0>         0.0637
     41 H11         1.2988   19.9209    7.9496 H       1  <0>         0.0637
     42 H12         2.3421   23.2909   11.5000 H       1  <0>         0.0644
     43 H13        -0.3786   20.4151    9.7288 H       1  <0>         0.0644
     44 H14         3.7264   23.7567    7.1300 H       1  <0>         0.0686
     45 H15         6.2154   21.0346    3.9501 H       1  <0>         0.1048
     46 H16        -1.6467   25.7934   13.2765 H       1  <0>         0.0841
     47 H17        -3.0667   24.7079   12.9187 H       1  <0>         0.0841
     48 H18        -1.1045   23.9331   11.2325 H       1  <0>         0.0593
     49 H19         0.4304   24.2621   12.1228 H       1  <0>         0.0593
     50 H20        -1.9412   22.8534   13.2820 H       1  <0>         0.0670
     51 H21         3.9896   20.0329    7.6581 H       1  <0>         0.1536
     52 H22         5.2696   25.3768    4.1130 H       1  <0>         0.1537
     53 H23        -2.2567   24.4636   15.5316 H       1  <0>         0.2029
     54 H24         0.4271   23.1591   14.1893 H       1  <0>         0.2101
@<TRIPOS>BOND
     1     1    26    1
     2     2    26    1
     3     3     4   ar
     4     3     5   ar
     5     4    16   ar
     6     5    17   ar
     7     6     8   ar
     8     6    14   ar
     9     7     9   ar
    10     7    14   ar
    11     8    15   ar
    12     9    15   ar
    13    10    18   ar
    14    10    19   ar
    15    11    22   ar
    16    11    23   ar
    17    12    21    1
    18    12    26    1
    19    13    21    1
    20    13    28    1
    21    14    24    1
    22    15    28    1
    23    16    20   ar
    24    16    29    1
    25    17    20   ar
    26    17    30    1
    27    18    22   ar
    28    18    24    1
    29    19    23   ar
    30    19    25    1
    31    20    25    1
    32    21    27    1
    33     1    31    1
    34     1    32    1
    35     1    33    1
    36     2    34    1
    37     2    35    1
    38     2    36    1
    39     3    37    1
    40     4    38    1
    41     5    39    1
    42     6    40    1
    43     7    41    1
    44     8    42    1
    45     9    43    1
    46    10    44    1
    47    11    45    1
    48    12    46    1
    49    12    47    1
    50    13    48    1
    51    13    49    1
    52    21    50    1
    53    24    51    1
    54    25    52    1
    55    26    53    1
    56    27    54    1
@<TRIPOS>SUBSTRUCTURE
     1 <0>         1 TEMP              0 ****  ****    0 ROOT

