
##########                                Name:      FAP_A1300_1H00
##########                    Molecular_Weight:             416.451
##########                DOCK_Rotatable_Bonds:                  10
##########                       Formal_Charge:                   1
##########                     HBond_Acceptors:                   9
##########                        HBond_Donors:                   4
##########                         Heavy_Atoms:                  30
##########                            HA_RMSDs:              11.725
##########                            HA_RMSDh:              10.671
##########                            HA_RMSDm:               9.398
##########                          Grid_Score:          -94.640030
##########                     Grid_vdw_energy:          -43.825592
##########                      Grid_es_energy:          -50.814438
##########           Internal_energy_repulsive:            3.531906

@<TRIPOS>MOLECULE
FAP_A1300_1H00
 54 56 1 0 0
SMALL
USER_CHARGES


@<TRIPOS>ATOM
      1 C1         -1.2092   31.8495   10.2961 C.3     1  <0>        -0.0433
      2 C2         -3.4214   31.2798    9.4375 C.3     1  <0>        -0.0433
      3 C3          0.2826   19.1063    8.2002 C.ar    1  <0>        -0.0562
      4 C4         -0.4809   17.9818    8.6001 C.ar    1  <0>        -0.0244
      5 C5          0.9962   19.8594    9.1600 C.ar    1  <0>        -0.0244
      6 C6         -0.0187   23.2728   13.6068 C.ar    1  <0>        -0.0381
      7 C7         -1.7794   24.0650   15.1352 C.ar    1  <0>        -0.0381
      8 C8         -0.0419   24.5079   12.9262 C.ar    1  <0>        -0.0299
      9 C9         -1.8032   25.3077   14.4519 C.ar    1  <0>        -0.0299
     10 C10        -0.4367   19.9117   13.8049 C.ar    1  <0>         0.0185
     11 C11        -0.2985   18.2444   15.9370 C.ar    1  <0>         0.1201
     12 C12        -2.2968   29.7133   10.9990 C.3     1  <0>        -0.0036
     13 C13        -1.9401   27.1961   11.7291 C.3     1  <0>         0.0851
     14 C14        -0.8913   23.0366   14.7195 C.ar    1  <0>         0.0325
     15 C15        -0.9316   25.5351   13.3387 C.ar    1  <0>         0.0764
     16 C16        -0.5338   17.5986    9.9660 C.ar    1  <0>         0.1473
     17 C17         0.9546   19.4929   10.5294 C.ar    1  <0>         0.1473
     18 C18        -0.6349   20.3830   15.1484 C.ar    1  <0>         0.1279
     19 C19        -0.1605   18.5132   13.6512 C.ar    1  <0>         0.1280
     20 C20         0.1773   18.3462   10.9567 C.ar    1  <0>         0.1037
     21 C21        -1.4858   28.3993   10.8836 C.3     1  <0>         0.1184
     22 N1         -0.5613   19.5296   16.1917 N.ar    1  <0>        -0.2205
     23 N2         -0.0973   17.7055   14.7318 N.ar    1  <0>        -0.2205
     24 N3         -0.9105   21.7782   15.4587 N.pl3   1  <0>        -0.2993
     25 N4          0.0704   17.8849   12.3557 N.pl3   1  <0>        -0.2948
     26 N5         -2.1152   30.7337    9.9131 N.4     1  <0>         0.2328
     27 O1         -1.2296   28.0432    9.5674 O.3     1  <0>        -0.3842
     28 O2         -0.8754   26.7112   12.5951 O.3     1  <0>        -0.3419
     29 F1         -1.2823   16.5038   10.3103 F       1  <0>        -0.2034
     30 F2          1.6637   20.2609   11.4075 F       1  <0>        -0.2034
     31 H1         -0.2497   31.4402   10.6451 H       1  <0>         0.0777
     32 H2         -1.0358   32.4968    9.4236 H       1  <0>         0.0777
     33 H3         -1.6720   32.4370   11.1026 H       1  <0>         0.0777
     34 H4         -4.0859   30.4496    9.1562 H       1  <0>         0.0777
     35 H5         -3.8883   31.8664   10.2425 H       1  <0>         0.0777
     36 H6         -3.2521   31.9261    8.5636 H       1  <0>         0.0777
     37 H7          0.3194   19.3889    7.1584 H       1  <0>         0.0619
     38 H8         -1.0259   17.4128    7.8614 H       1  <0>         0.0647
     39 H9          1.5751   20.7168    8.8496 H       1  <0>         0.0647
     40 H10         0.6624   22.4980   13.2869 H       1  <0>         0.0637
     41 H11        -2.4387   23.8998   15.9745 H       1  <0>         0.0637
     42 H12         0.6193   24.6731   12.0884 H       1  <0>         0.0644
     43 H13        -2.4810   26.0852   14.7722 H       1  <0>         0.0644
     44 H14        -0.4930   20.5764   12.9556 H       1  <0>         0.0686
     45 H15        -0.2438   17.5789   16.7857 H       1  <0>         0.1048
     46 H16        -3.3607   29.4339   11.0010 H       1  <0>         0.0841
     47 H17        -1.9968   30.1929   11.9424 H       1  <0>         0.0841
     48 H18        -2.7902   27.5056   12.3547 H       1  <0>         0.0593
     49 H19        -2.2419   26.3833   11.0522 H       1  <0>         0.0593
     50 H20        -0.5398   28.6825   11.3682 H       1  <0>         0.0670
     51 H21        -1.1790   21.9061   16.4135 H       1  <0>         0.1536
     52 H22         0.1849   16.8945   12.4340 H       1  <0>         0.1537
     53 H23        -1.6771   30.2395    9.1621 H       1  <0>         0.2029
     54 H24        -0.8247   27.1842    9.5444 H       1  <0>         0.2101
@<TRIPOS>BOND
     1     1    26    1
     2     2    26    1
     3     3     4   ar
     4     3     5   ar
     5     4    16   ar
     6     5    17   ar
     7     6     8   ar
     8     6    14   ar
     9     7     9   ar
    10     7    14   ar
    11     8    15   ar
    12     9    15   ar
    13    10    18   ar
    14    10    19   ar
    15    11    22   ar
    16    11    23   ar
    17    12    21    1
    18    12    26    1
    19    13    21    1
    20    13    28    1
    21    14    24    1
    22    15    28    1
    23    16    20   ar
    24    16    29    1
    25    17    20   ar
    26    17    30    1
    27    18    22   ar
    28    18    24    1
    29    19    23   ar
    30    19    25    1
    31    20    25    1
    32    21    27    1
    33     1    31    1
    34     1    32    1
    35     1    33    1
    36     2    34    1
    37     2    35    1
    38     2    36    1
    39     3    37    1
    40     4    38    1
    41     5    39    1
    42     6    40    1
    43     7    41    1
    44     8    42    1
    45     9    43    1
    46    10    44    1
    47    11    45    1
    48    12    46    1
    49    12    47    1
    50    13    48    1
    51    13    49    1
    52    21    50    1
    53    24    51    1
    54    25    52    1
    55    26    53    1
    56    27    54    1
@<TRIPOS>SUBSTRUCTURE
     1 <0>         1 TEMP              0 ****  ****    0 ROOT

