
##########                                Name:      FAP_A1300_1H00
##########                    Molecular_Weight:             416.451
##########                DOCK_Rotatable_Bonds:                  10
##########                       Formal_Charge:                   1
##########                     HBond_Acceptors:                   9
##########                        HBond_Donors:                   4
##########                         Heavy_Atoms:                  30
##########                            HA_RMSDs:               7.725
##########                            HA_RMSDh:               5.788
##########                            HA_RMSDm:               5.495
##########                          Grid_Score:          -33.494358
##########                     Grid_vdw_energy:           21.349140
##########                      Grid_es_energy:          -54.843498
##########           Internal_energy_repulsive:           10.763983

@<TRIPOS>MOLECULE
FAP_A1300_1H00
 54 56 1 0 0
SMALL
USER_CHARGES


@<TRIPOS>ATOM
      1 C1         -1.7696   21.4478   17.5750 C.3     1  <0>        -0.0433
      2 C2         -0.0263   20.7083   16.0357 C.3     1  <0>        -0.0433
      3 C3          4.6464   26.3494    8.6933 C.ar    1  <0>        -0.0562
      4 C4          5.3470   27.5089    8.2782 C.ar    1  <0>        -0.0244
      5 C5          3.2493   26.3988    8.9014 C.ar    1  <0>        -0.0244
      6 C6         -2.4015   28.1974   10.9488 C.ar    1  <0>        -0.0381
      7 C7         -1.5723   29.3079   12.9843 C.ar    1  <0>        -0.0381
      8 C8         -2.6519   27.0196   11.6831 C.ar    1  <0>        -0.0299
      9 C9         -1.8243   28.1241   13.7239 C.ar    1  <0>        -0.0299
     10 C10         0.5354   30.2428    9.5172 C.ar    1  <0>         0.0185
     11 C11         0.0545   32.6628    8.3961 C.ar    1  <0>         0.1201
     12 C12        -0.9497   22.9990   15.7968 C.3     1  <0>        -0.0036
     13 C13        -1.6854   24.6824   13.8938 C.3     1  <0>         0.0851
     14 C14        -1.8551   29.3560   11.5925 C.ar    1  <0>         0.0325
     15 C15        -2.3664   26.9693   13.0734 C.ar    1  <0>         0.0764
     16 C16         4.6534   28.7289    8.0639 C.ar    1  <0>         0.1473
     17 C17         2.5392   27.6087    8.6937 C.ar    1  <0>         0.1473
     18 C18        -0.6024   31.0377    9.8914 C.ar    1  <0>         0.1279
     19 C19         1.4024   30.7962    8.5184 C.ar    1  <0>         0.1280
     20 C20         3.2401   28.8051    8.2705 C.ar    1  <0>         0.1037
     21 C21        -2.0785   23.7690   15.0686 C.3     1  <0>         0.1184
     22 N1         -0.8167   32.2404    9.3170 N.ar    1  <0>        -0.2205
     23 N2          1.1382   32.0048    7.9765 N.ar    1  <0>        -0.2205
     24 N3         -1.5751   30.5997   10.8818 N.pl3   1  <0>        -0.2993
     25 N4          2.5922   30.1101    8.0282 N.pl3   1  <0>        -0.2948
     26 N5         -1.2292   21.5790   16.1954 N.4     1  <0>         0.2328
     27 O1         -3.1631   22.9612   14.7591 O.3     1  <0>        -0.3842
     28 O2         -2.6471   25.7575   13.6996 O.3     1  <0>        -0.3419
     29 F1          5.3680   29.8263    7.6610 F       1  <0>        -0.2034
     30 F2          1.1918   27.5923    8.9129 F       1  <0>        -0.2034
     31 H1         -2.6548   22.0914   17.6854 H       1  <0>         0.0777
     32 H2         -2.0523   20.4009   17.7599 H       1  <0>         0.0777
     33 H3         -1.0013   21.7539   18.3002 H       1  <0>         0.0777
     34 H4          0.3678   20.8103   15.0138 H       1  <0>         0.0777
     35 H5          0.7453   21.0130   16.7581 H       1  <0>         0.0777
     36 H6         -0.3058   19.6601   16.2178 H       1  <0>         0.0777
     37 H7          5.1818   25.4249    8.8512 H       1  <0>         0.0619
     38 H8          6.4150   27.4643    8.1239 H       1  <0>         0.0647
     39 H9          2.7208   25.5123    9.2197 H       1  <0>         0.0647
     40 H10        -2.6233   28.2268    9.8922 H       1  <0>         0.0637
     41 H11        -1.1641   30.1758   13.4806 H       1  <0>         0.0637
     42 H12        -3.0623   26.1529   11.1864 H       1  <0>         0.0644
     43 H13        -1.6065   28.0936   14.7813 H       1  <0>         0.0644
     44 H14         0.7271   29.2790    9.9652 H       1  <0>         0.0686
     45 H15        -0.1356   33.6272    7.9489 H       1  <0>         0.1048
     46 H16        -0.0864   22.9762   15.1155 H       1  <0>         0.0841
     47 H17        -0.7285   23.5533   16.7209 H       1  <0>         0.0841
     48 H18        -0.7003   25.1242   14.1049 H       1  <0>         0.0593
     49 H19        -1.6423   24.0777   12.9760 H       1  <0>         0.0593
     50 H20        -2.3808   24.4943   15.8384 H       1  <0>         0.0670
     51 H21        -2.2070   31.3310   11.1385 H       1  <0>         0.1536
     52 H22         3.0949   30.6606    7.3616 H       1  <0>         0.1537
     53 H23        -1.9414   21.2675   15.5663 H       1  <0>         0.2029
     54 H24        -3.8442   23.4858   14.3551 H       1  <0>         0.2101
@<TRIPOS>BOND
     1     1    26    1
     2     2    26    1
     3     3     4   ar
     4     3     5   ar
     5     4    16   ar
     6     5    17   ar
     7     6     8   ar
     8     6    14   ar
     9     7     9   ar
    10     7    14   ar
    11     8    15   ar
    12     9    15   ar
    13    10    18   ar
    14    10    19   ar
    15    11    22   ar
    16    11    23   ar
    17    12    21    1
    18    12    26    1
    19    13    21    1
    20    13    28    1
    21    14    24    1
    22    15    28    1
    23    16    20   ar
    24    16    29    1
    25    17    20   ar
    26    17    30    1
    27    18    22   ar
    28    18    24    1
    29    19    23   ar
    30    19    25    1
    31    20    25    1
    32    21    27    1
    33     1    31    1
    34     1    32    1
    35     1    33    1
    36     2    34    1
    37     2    35    1
    38     2    36    1
    39     3    37    1
    40     4    38    1
    41     5    39    1
    42     6    40    1
    43     7    41    1
    44     8    42    1
    45     9    43    1
    46    10    44    1
    47    11    45    1
    48    12    46    1
    49    12    47    1
    50    13    48    1
    51    13    49    1
    52    21    50    1
    53    24    51    1
    54    25    52    1
    55    26    53    1
    56    27    54    1
@<TRIPOS>SUBSTRUCTURE
     1 <0>         1 TEMP              0 ****  ****    0 ROOT

