
##########                                Name:        FLP_501_1R9O
##########                    Molecular_Weight:             243.257
##########                DOCK_Rotatable_Bonds:                   3
##########                       Formal_Charge:             -0.9996
##########                     HBond_Acceptors:                   3
##########                        HBond_Donors:                   0
##########                         Heavy_Atoms:                  18
##########                            HA_RMSDs:               6.556
##########                            HA_RMSDh:               6.412
##########                            HA_RMSDm:               5.335
##########                          Grid_Score:           27.854189
##########                     Grid_vdw_energy:          -30.541380
##########                      Grid_es_energy:           58.395569
##########           Internal_energy_repulsive:            5.836955

@<TRIPOS>MOLECULE
FLP_501_1R9O
 30 31 1 0 0
SMALL
USER_CHARGES


@<TRIPOS>ATOM
      1 C1          3.8610   31.8290   -2.1321 C.3     1  <0>        -0.0532
      2 C2          9.0179   23.8900   -3.5759 C.ar    1  <0>        -0.0617
      3 C3          9.5223   24.9784   -4.3704 C.ar    1  <0>        -0.0612
      4 C4          7.8908   24.0673   -2.6982 C.ar    1  <0>        -0.0612
      5 C5          8.8459   26.2643   -4.3286 C.ar    1  <0>        -0.0539
      6 C6          7.2222   25.3276   -2.6477 C.ar    1  <0>        -0.0539
      7 C7          7.2182   30.3158   -3.3319 C.ar    1  <0>        -0.0572
      8 C8          7.8376   29.0263   -3.4390 C.ar    1  <0>        -0.0510
      9 C9          4.9717   29.2550   -3.1965 C.ar    1  <0>        -0.0221
     10 C10         7.6867   26.4931   -3.4496 C.ar    1  <0>        -0.0151
     11 C11         5.7694   30.4465   -3.2757 C.ar    1  <0>        -0.0363
     12 C12         7.0320   27.7688   -3.3565 C.ar    1  <0>         0.0173
     13 C13         5.5530   27.9461   -3.3218 C.ar    1  <0>         0.1313
     14 C14         5.0421   31.8391   -3.1680 C.3     1  <0>         0.0209
     15 C15         4.5339   32.2964   -4.6038 C.2     1  <0>         0.0489
     16 O1          5.2982   32.9727   -5.3273 O.co2   1  <0>        -0.5492
     17 O2          3.4083   31.9803   -5.0006 O.co2   1  <0>        -0.5492
     18 F1          4.6588   26.8843   -3.2546 F       1  <0>        -0.2048
     19 H1          3.3925   32.8237   -2.0997 H       1  <0>         0.0239
     20 H2          3.1134   31.0815   -2.4359 H       1  <0>         0.0239
     21 H3          4.2501   31.5747   -1.1351 H       1  <0>         0.0239
     22 H4          9.4936   22.9225   -3.6392 H       1  <0>         0.0618
     23 H5         10.3949   24.8413   -4.9917 H       1  <0>         0.0618
     24 H6          7.5521   23.2493   -2.0797 H       1  <0>         0.0618
     25 H7          9.2010   27.0690   -4.9554 H       1  <0>         0.0624
     26 H8          6.3568   25.4387   -2.0112 H       1  <0>         0.0624
     27 H9          7.8350   31.2015   -3.2925 H       1  <0>         0.0621
     28 H10         8.9061   28.9623   -3.5820 H       1  <0>         0.0625
     29 H11         3.9070   29.3446   -3.0387 H       1  <0>         0.0649
     30 H12         5.7768   32.5662   -2.7921 H       1  <0>         0.0406
@<TRIPOS>BOND
     1     1    14    1
     2     2     3   ar
     3     2     4   ar
     4     3     5   ar
     5     4     6   ar
     6     5    10   ar
     7     6    10   ar
     8     7     8   ar
     9     7    11   ar
    10     8    12   ar
    11     9    11   ar
    12     9    13   ar
    13    10    12    1
    14    11    14    1
    15    12    13   ar
    16    13    18    1
    17    14    15    1
    18    15    16    1
    19    15    17    2
    20     1    19    1
    21     1    20    1
    22     1    21    1
    23     2    22    1
    24     3    23    1
    25     4    24    1
    26     5    25    1
    27     6    26    1
    28     7    27    1
    29     8    28    1
    30     9    29    1
    31    14    30    1
@<TRIPOS>SUBSTRUCTURE
     1 <0>         1 TEMP              0 ****  ****    0 ROOT

