
##########                                Name:        FLP_501_1R9O
##########                    Molecular_Weight:             243.257
##########                DOCK_Rotatable_Bonds:                   3
##########                       Formal_Charge:             -0.9996
##########                     HBond_Acceptors:                   3
##########                        HBond_Donors:                   0
##########                         Heavy_Atoms:                  18
##########                            HA_RMSDs:               6.548
##########                            HA_RMSDh:               6.462
##########                            HA_RMSDm:               5.328
##########                          Grid_Score:           21.831615
##########                     Grid_vdw_energy:          -33.967602
##########                      Grid_es_energy:           55.799217
##########           Internal_energy_repulsive:            8.352822

@<TRIPOS>MOLECULE
FLP_501_1R9O
 30 31 1 0 0
SMALL
USER_CHARGES


@<TRIPOS>ATOM
      1 C1          8.0056   32.8697   -3.0684 C.3     1  <0>        -0.0532
      2 C2         -1.4277   33.3891   -1.3365 C.ar    1  <0>        -0.0617
      3 C3         -0.7898   32.1133   -1.1480 C.ar    1  <0>        -0.0612
      4 C4         -0.7274   34.4904   -1.9440 C.ar    1  <0>        -0.0612
      5 C5          0.5667   31.9165   -1.6315 C.ar    1  <0>        -0.0539
      6 C6          0.6065   34.3077   -2.4188 C.ar    1  <0>        -0.0539
      7 C7          5.0510   32.0410   -2.2128 C.ar    1  <0>        -0.0572
      8 C8          3.6833   32.1986   -1.8096 C.ar    1  <0>        -0.0510
      9 C9          4.5347   33.0197   -4.4412 C.ar    1  <0>        -0.0221
     10 C10         1.3224   33.0114   -2.2630 C.ar    1  <0>        -0.0151
     11 C11         5.4778   32.3903   -3.5600 C.ar    1  <0>        -0.0363
     12 C12         2.6803   32.8535   -2.7054 C.ar    1  <0>         0.0173
     13 C13         3.1514   33.1754   -4.0818 C.ar    1  <0>         0.1313
     14 C14         6.9644   32.2264   -4.0533 C.3     1  <0>         0.0209
     15 C15         7.1186   32.8303   -5.5162 C.2     1  <0>         0.0489
     16 O1          6.6007   32.2210   -6.4783 O.co2   1  <0>        -0.5492
     17 O2          7.7303   33.8874   -5.6970 O.co2   1  <0>        -0.5492
     18 F1          2.3465   33.7760   -5.0425 F       1  <0>        -0.2048
     19 H1          9.0222   32.7250   -3.4629 H       1  <0>         0.0239
     20 H2          7.8005   33.9459   -2.9698 H       1  <0>         0.0239
     21 H3          7.9232   32.3888   -2.0825 H       1  <0>         0.0239
     22 H4         -2.4504   33.5230   -1.0165 H       1  <0>         0.0618
     23 H5         -1.3139   31.3097   -0.6519 H       1  <0>         0.0618
     24 H6         -1.2097   35.4519   -2.0403 H       1  <0>         0.0618
     25 H7          1.0303   30.9468   -1.5253 H       1  <0>         0.0624
     26 H8          1.1095   35.1312   -2.9038 H       1  <0>         0.0624
     27 H9          5.7736   31.6582   -1.5074 H       1  <0>         0.0621
     28 H10         3.3718   31.8375   -0.8406 H       1  <0>         0.0625
     29 H11         4.8734   33.3856   -5.3992 H       1  <0>         0.0649
     30 H12         7.1864   31.1493   -4.0776 H       1  <0>         0.0406
@<TRIPOS>BOND
     1     1    14    1
     2     2     3   ar
     3     2     4   ar
     4     3     5   ar
     5     4     6   ar
     6     5    10   ar
     7     6    10   ar
     8     7     8   ar
     9     7    11   ar
    10     8    12   ar
    11     9    11   ar
    12     9    13   ar
    13    10    12    1
    14    11    14    1
    15    12    13   ar
    16    13    18    1
    17    14    15    1
    18    15    16    1
    19    15    17    2
    20     1    19    1
    21     1    20    1
    22     1    21    1
    23     2    22    1
    24     3    23    1
    25     4    24    1
    26     5    25    1
    27     6    26    1
    28     7    27    1
    29     8    28    1
    30     9    29    1
    31    14    30    1
@<TRIPOS>SUBSTRUCTURE
     1 <0>         1 TEMP              0 ****  ****    0 ROOT

