
##########                                Name:        FLP_501_1R9O
##########                    Molecular_Weight:             243.257
##########                DOCK_Rotatable_Bonds:                   3
##########                       Formal_Charge:             -0.9996
##########                     HBond_Acceptors:                   3
##########                        HBond_Donors:                   0
##########                         Heavy_Atoms:                  18
##########                            HA_RMSDs:               6.729
##########                            HA_RMSDh:               6.579
##########                            HA_RMSDm:               5.479
##########                          Grid_Score:           22.553699
##########                     Grid_vdw_energy:          -32.822037
##########                      Grid_es_energy:           55.375736
##########           Internal_energy_repulsive:           14.936801

@<TRIPOS>MOLECULE
FLP_501_1R9O
 30 31 1 0 0
SMALL
USER_CHARGES


@<TRIPOS>ATOM
      1 C1          7.9003   32.8213   -4.1500 C.3     1  <0>        -0.0532
      2 C2         -1.2870   33.2460   -1.4575 C.ar    1  <0>        -0.0617
      3 C3         -0.7400   31.9334   -1.6768 C.ar    1  <0>        -0.0612
      4 C4         -0.5431   34.4303   -1.7984 C.ar    1  <0>        -0.0612
      5 C5          0.5633   31.8005   -2.3064 C.ar    1  <0>        -0.0539
      6 C6          0.7393   34.3099   -2.4141 C.ar    1  <0>        -0.0539
      7 C7          4.6288   31.3920   -3.9550 C.ar    1  <0>        -0.0572
      8 C8          3.3147   31.5327   -3.3971 C.ar    1  <0>        -0.0510
      9 C9          4.7277   33.8366   -4.4071 C.ar    1  <0>        -0.0221
     10 C10         1.3602   32.9823   -2.6767 C.ar    1  <0>        -0.0151
     11 C11         5.3240   32.5358   -4.5274 C.ar    1  <0>        -0.0363
     12 C12         2.6707   32.8753   -3.2565 C.ar    1  <0>         0.0173
     13 C13         3.4045   34.0155   -3.8741 C.ar    1  <0>         0.1313
     14 C14         6.7622   32.4307   -5.1601 C.3     1  <0>         0.0209
     15 C15         6.8408   33.3206   -6.4757 C.2     1  <0>         0.0489
     16 O1          6.3029   32.8981   -7.5231 O.co2   1  <0>        -0.5492
     17 O2          7.4141   34.4139   -6.4598 O.co2   1  <0>        -0.5492
     18 F1          2.9430   35.3261   -3.8431 F       1  <0>        -0.2048
     19 H1          8.8782   32.7295   -4.6452 H       1  <0>         0.0239
     20 H2          7.7542   33.8595   -3.8169 H       1  <0>         0.0239
     21 H3          7.8653   32.1486   -3.2804 H       1  <0>         0.0239
     22 H4         -2.2736   33.3445   -1.0294 H       1  <0>         0.0618
     23 H5         -1.2925   31.0553   -1.3763 H       1  <0>         0.0618
     24 H6         -0.9539   35.4069   -1.5891 H       1  <0>         0.0618
     25 H7          0.9555   30.8145   -2.5069 H       1  <0>         0.0624
     26 H8          1.2731   35.2052   -2.6967 H       1  <0>         0.0624
     27 H9          5.1088   30.4245   -3.9502 H       1  <0>         0.0621
     28 H10         2.7801   30.6523   -3.0725 H       1  <0>         0.0625
     29 H11         5.2880   34.7033   -4.7253 H       1  <0>         0.0649
     30 H12         6.9304   31.3757   -5.4224 H       1  <0>         0.0406
@<TRIPOS>BOND
     1     1    14    1
     2     2     3   ar
     3     2     4   ar
     4     3     5   ar
     5     4     6   ar
     6     5    10   ar
     7     6    10   ar
     8     7     8   ar
     9     7    11   ar
    10     8    12   ar
    11     9    11   ar
    12     9    13   ar
    13    10    12    1
    14    11    14    1
    15    12    13   ar
    16    13    18    1
    17    14    15    1
    18    15    16    1
    19    15    17    2
    20     1    19    1
    21     1    20    1
    22     1    21    1
    23     2    22    1
    24     3    23    1
    25     4    24    1
    26     5    25    1
    27     6    26    1
    28     7    27    1
    29     8    28    1
    30     9    29    1
    31    14    30    1
@<TRIPOS>SUBSTRUCTURE
     1 <0>         1 TEMP              0 ****  ****    0 ROOT

