
##########                                Name:        FLP_501_1R9O
##########                    Molecular_Weight:             243.257
##########                DOCK_Rotatable_Bonds:                   3
##########                       Formal_Charge:             -0.9996
##########                     HBond_Acceptors:                   3
##########                        HBond_Donors:                   0
##########                         Heavy_Atoms:                  18
##########                            HA_RMSDs:               2.777
##########                            HA_RMSDh:               2.777
##########                            HA_RMSDm:               2.283
##########                          Grid_Score:          353.621338
##########                     Grid_vdw_energy:          288.794189
##########                      Grid_es_energy:           64.827156
##########           Internal_energy_repulsive:            5.983237

@<TRIPOS>MOLECULE
FLP_501_1R9O
 30 31 1 0 0
SMALL
USER_CHARGES


@<TRIPOS>ATOM
      1 C1         10.0917   34.7556   -0.5064 C.3     1  <0>        -0.0532
      2 C2          5.3542   26.9994   -3.5679 C.ar    1  <0>        -0.0617
      3 C3          5.8730   27.8421   -4.6124 C.ar    1  <0>        -0.0612
      4 C4          5.4111   27.4026   -2.1872 C.ar    1  <0>        -0.0612
      5 C5          6.4123   29.1483   -4.2723 C.ar    1  <0>        -0.0539
      6 C6          5.9421   28.6823   -1.8430 C.ar    1  <0>        -0.0539
      7 C7          8.8906   32.6191   -2.8654 C.ar    1  <0>        -0.0572
      8 C8          8.2835   31.3675   -3.2159 C.ar    1  <0>        -0.0510
      9 C9          7.0827   33.0644   -1.2151 C.ar    1  <0>        -0.0221
     10 C10         6.4880   29.6067   -2.8748 C.ar    1  <0>        -0.0151
     11 C11         8.2589   33.5132   -1.9059 C.ar    1  <0>        -0.0363
     12 C12         7.0603   30.8735   -2.5109 C.ar    1  <0>         0.0173
     13 C13         6.4332   31.8271   -1.5531 C.ar    1  <0>         0.1313
     14 C14         8.8802   34.9010   -1.4959 C.3     1  <0>         0.0209
     15 C15         7.7526   35.8374   -0.8790 C.2     1  <0>         0.0489
     16 O1          7.1273   36.6099   -1.6388 O.co2   1  <0>        -0.5492
     17 O2          7.4926   35.7946    0.3272 O.co2   1  <0>        -0.5492
     18 F1          5.2883   31.5322   -0.8224 F       1  <0>        -0.2048
     19 H1         10.4832   35.7527   -0.2562 H       1  <0>         0.0239
     20 H2          9.7561   34.2525    0.4125 H       1  <0>         0.0239
     21 H3         10.8843   34.1596   -0.9825 H       1  <0>         0.0239
     22 H4          4.9140   26.0472   -3.8244 H       1  <0>         0.0618
     23 H5          5.8620   27.5072   -5.6391 H       1  <0>         0.0618
     24 H6          5.0530   26.7390   -1.4140 H       1  <0>         0.0618
     25 H7          6.7649   29.7964   -5.0610 H       1  <0>         0.0624
     26 H8          5.9481   28.9880   -0.8072 H       1  <0>         0.0624
     27 H9          9.8288   32.9017   -3.3194 H       1  <0>         0.0621
     28 H10         8.7180   30.7704   -4.0039 H       1  <0>         0.0625
     29 H11         6.6753   33.6722   -0.4208 H       1  <0>         0.0649
     30 H12         9.2809   35.3651   -2.4092 H       1  <0>         0.0406
@<TRIPOS>BOND
     1     1    14    1
     2     2     3   ar
     3     2     4   ar
     4     3     5   ar
     5     4     6   ar
     6     5    10   ar
     7     6    10   ar
     8     7     8   ar
     9     7    11   ar
    10     8    12   ar
    11     9    11   ar
    12     9    13   ar
    13    10    12    1
    14    11    14    1
    15    12    13   ar
    16    13    18    1
    17    14    15    1
    18    15    16    1
    19    15    17    2
    20     1    19    1
    21     1    20    1
    22     1    21    1
    23     2    22    1
    24     3    23    1
    25     4    24    1
    26     5    25    1
    27     6    26    1
    28     7    27    1
    29     8    28    1
    30     9    29    1
    31    14    30    1
@<TRIPOS>SUBSTRUCTURE
     1 <0>         1 TEMP              0 ****  ****    0 ROOT

