
##########                                Name:        FLP_501_1R9O
##########                    Molecular_Weight:             243.257
##########                DOCK_Rotatable_Bonds:                   3
##########                       Formal_Charge:             -0.9996
##########                     HBond_Acceptors:                   3
##########                        HBond_Donors:                   0
##########                         Heavy_Atoms:                  18
##########                            HA_RMSDs:               6.278
##########                            HA_RMSDh:               6.178
##########                            HA_RMSDm:               5.160
##########                          Grid_Score:           22.981354
##########                     Grid_vdw_energy:          -33.427914
##########                      Grid_es_energy:           56.409267
##########           Internal_energy_repulsive:            4.895247

@<TRIPOS>MOLECULE
FLP_501_1R9O
 30 31 1 0 0
SMALL
USER_CHARGES


@<TRIPOS>ATOM
      1 C1          8.0982   34.0850   -3.2064 C.3     1  <0>        -0.0532
      2 C2         -1.2895   33.3198   -1.4505 C.ar    1  <0>        -0.0617
      3 C3         -0.6324   32.0444   -1.5595 C.ar    1  <0>        -0.0612
      4 C4         -0.5845   34.5467   -1.7148 C.ar    1  <0>        -0.0612
      5 C5          0.7518   31.9912   -1.9996 C.ar    1  <0>        -0.0539
      6 C6          0.7763   34.5048   -2.1442 C.ar    1  <0>        -0.0539
      7 C7          5.1953   32.0989   -2.4766 C.ar    1  <0>        -0.0572
      8 C8          3.8060   32.1429   -2.1217 C.ar    1  <0>        -0.0510
      9 C9          4.8835   34.0074   -4.0420 C.ar    1  <0>        -0.0221
     10 C10         1.5135   33.2188   -2.2856 C.ar    1  <0>        -0.0151
     11 C11         5.7357   32.9906   -3.4924 C.ar    1  <0>        -0.0363
     12 C12         2.8961   33.1927   -2.6760 C.ar    1  <0>         0.0173
     13 C13         3.4820   34.0704   -3.7278 C.ar    1  <0>         0.1313
     14 C14         7.2502   32.9740   -3.9237 C.3     1  <0>         0.0209
     15 C15         7.3639   33.1052   -5.5044 C.2     1  <0>         0.0489
     16 O1          7.4090   32.0629   -6.1948 O.co2   1  <0>        -0.5492
     17 O2          7.3968   34.2167   -6.0407 O.co2   1  <0>        -0.5492
     18 F1          2.7727   35.0888   -4.3536 F       1  <0>        -0.2048
     19 H1          9.1430   34.0255   -3.5452 H       1  <0>         0.0239
     20 H2          7.6887   35.0756   -3.4537 H       1  <0>         0.0239
     21 H3          8.0567   33.9322   -2.1178 H       1  <0>         0.0239
     22 H4         -2.3304   33.3573   -1.1653 H       1  <0>         0.0618
     23 H5         -1.1626   31.1354   -1.3165 H       1  <0>         0.0618
     24 H6         -1.0836   35.4961   -1.5885 H       1  <0>         0.0618
     25 H7          1.2320   31.0313   -2.1195 H       1  <0>         0.0624
     26 H8          1.2845   35.4300   -2.3726 H       1  <0>         0.0624
     27 H9          5.8490   31.3947   -1.9835 H       1  <0>         0.0621
     28 H10         3.4095   31.4040   -1.4412 H       1  <0>         0.0625
     29 H11         5.3064   34.7439   -4.7090 H       1  <0>         0.0649
     30 H12         7.6725   32.0093   -3.6060 H       1  <0>         0.0406
@<TRIPOS>BOND
     1     1    14    1
     2     2     3   ar
     3     2     4   ar
     4     3     5   ar
     5     4     6   ar
     6     5    10   ar
     7     6    10   ar
     8     7     8   ar
     9     7    11   ar
    10     8    12   ar
    11     9    11   ar
    12     9    13   ar
    13    10    12    1
    14    11    14    1
    15    12    13   ar
    16    13    18    1
    17    14    15    1
    18    15    16    1
    19    15    17    2
    20     1    19    1
    21     1    20    1
    22     1    21    1
    23     2    22    1
    24     3    23    1
    25     4    24    1
    26     5    25    1
    27     6    26    1
    28     7    27    1
    29     8    28    1
    30     9    29    1
    31    14    30    1
@<TRIPOS>SUBSTRUCTURE
     1 <0>         1 TEMP              0 ****  ****    0 ROOT

