
##########                                Name:        FLP_501_1R9O
##########                    Molecular_Weight:             243.257
##########                DOCK_Rotatable_Bonds:                   3
##########                       Formal_Charge:             -0.9996
##########                     HBond_Acceptors:                   3
##########                        HBond_Donors:                   0
##########                         Heavy_Atoms:                  18
##########                            HA_RMSDs:               6.169
##########                            HA_RMSDh:               6.083
##########                            HA_RMSDm:               4.986
##########                          Grid_Score:           18.713543
##########                     Grid_vdw_energy:          -37.224430
##########                      Grid_es_energy:           55.937973
##########           Internal_energy_repulsive:            7.231543

@<TRIPOS>MOLECULE
FLP_501_1R9O
 30 31 1 0 0
SMALL
USER_CHARGES


@<TRIPOS>ATOM
      1 C1          8.3004   32.9769   -2.7211 C.3     1  <0>        -0.0532
      2 C2         -1.2428   33.2932   -1.6854 C.ar    1  <0>        -0.0617
      3 C3         -0.5799   32.0336   -1.4754 C.ar    1  <0>        -0.0612
      4 C4         -0.5367   34.4268   -2.2227 C.ar    1  <0>        -0.0612
      5 C5          0.8124   31.8871   -1.8661 C.ar    1  <0>        -0.0539
      6 C6          0.8320   34.2937   -2.6061 C.ar    1  <0>        -0.0539
      7 C7          5.2899   32.0156   -2.2058 C.ar    1  <0>        -0.0572
      8 C8          3.8937   32.1290   -1.8964 C.ar    1  <0>        -0.0510
      9 C9          4.9537   33.2924   -4.3145 C.ar    1  <0>        -0.0221
     10 C10         1.5755   33.0166   -2.4236 C.ar    1  <0>        -0.0151
     11 C11         5.8237   32.5409   -3.4541 C.ar    1  <0>        -0.0363
     12 C12         2.9652   32.9082   -2.7725 C.ar    1  <0>         0.0173
     13 C13         3.5455   33.4100   -4.0498 C.ar    1  <0>         0.1313
     14 C14         7.3457   32.4324   -3.8437 C.3     1  <0>         0.0209
     15 C15         7.6058   33.1809   -5.2224 C.2     1  <0>         0.0489
     16 O1          7.4547   32.5478   -6.2907 O.co2   1  <0>        -0.5492
     17 O2          7.9411   34.3690   -5.2374 O.co2   1  <0>        -0.5492
     18 F1          2.8197   34.1427   -4.9816 F       1  <0>        -0.2048
     19 H1          9.3460   32.8760   -3.0476 H       1  <0>         0.0239
     20 H2          8.0762   34.0370   -2.5318 H       1  <0>         0.0239
     21 H3          8.1474   32.3989   -1.7978 H       1  <0>         0.0239
     22 H4         -2.2889   33.3900   -1.4355 H       1  <0>         0.0618
     23 H5         -1.1118   31.2049   -1.0317 H       1  <0>         0.0618
     24 H6         -1.0410   35.3753   -2.3353 H       1  <0>         0.0618
     25 H7          1.2976   30.9299   -1.7450 H       1  <0>         0.0624
     26 H8          1.3414   35.1414   -3.0399 H       1  <0>         0.0624
     27 H9          5.9539   31.5341   -1.5032 H       1  <0>         0.0621
     28 H10         3.5056   31.6423   -1.0139 H       1  <0>         0.0625
     29 H11         5.3681   33.7822   -5.1833 H       1  <0>         0.0649
     30 H12         7.5810   31.3640   -3.9583 H       1  <0>         0.0406
@<TRIPOS>BOND
     1     1    14    1
     2     2     3   ar
     3     2     4   ar
     4     3     5   ar
     5     4     6   ar
     6     5    10   ar
     7     6    10   ar
     8     7     8   ar
     9     7    11   ar
    10     8    12   ar
    11     9    11   ar
    12     9    13   ar
    13    10    12    1
    14    11    14    1
    15    12    13   ar
    16    13    18    1
    17    14    15    1
    18    15    16    1
    19    15    17    2
    20     1    19    1
    21     1    20    1
    22     1    21    1
    23     2    22    1
    24     3    23    1
    25     4    24    1
    26     5    25    1
    27     6    26    1
    28     7    27    1
    29     8    28    1
    30     9    29    1
    31    14    30    1
@<TRIPOS>SUBSTRUCTURE
     1 <0>         1 TEMP              0 ****  ****    0 ROOT

