
##########                                Name:        FLP_501_1R9O
##########                    Molecular_Weight:             243.257
##########                DOCK_Rotatable_Bonds:                   3
##########                       Formal_Charge:             -0.9996
##########                     HBond_Acceptors:                   3
##########                        HBond_Donors:                   0
##########                         Heavy_Atoms:                  18
##########                            HA_RMSDs:               0.656
##########                            HA_RMSDh:               0.656
##########                            HA_RMSDm:               0.656
##########                          Grid_Score:           28.014019
##########                     Grid_vdw_energy:          -35.392365
##########                      Grid_es_energy:           63.406384
##########           Internal_energy_repulsive:            5.111195

@<TRIPOS>MOLECULE
FLP_501_1R9O
 30 31 1 0 0
SMALL
USER_CHARGES


@<TRIPOS>ATOM
      1 C1          9.4145   36.6312    0.2419 C.3     1  <0>        -0.0532
      2 C2          5.5579   28.6940   -3.4812 C.ar    1  <0>        -0.0617
      3 C3          6.9944   28.6276   -3.4319 C.ar    1  <0>        -0.0612
      4 C4          4.8528   29.8870   -3.0914 C.ar    1  <0>        -0.0612
      5 C5          7.7490   29.8051   -3.0359 C.ar    1  <0>        -0.0539
      6 C6          5.5853   31.0474   -2.6977 C.ar    1  <0>        -0.0539
      7 C7          9.8366   33.1834   -1.0031 C.ar    1  <0>        -0.0572
      8 C8          9.0973   32.0469   -1.4718 C.ar    1  <0>        -0.0510
      9 C9          8.1694   34.7226   -2.0237 C.ar    1  <0>        -0.0221
     10 C10         7.0728   31.0496   -2.6325 C.ar    1  <0>        -0.0151
     11 C11         9.4140   34.5371   -1.3317 C.ar    1  <0>        -0.0363
     12 C12         7.7966   32.2101   -2.1922 C.ar    1  <0>         0.0173
     13 C13         7.4114   33.6098   -2.5278 C.ar    1  <0>         0.1313
     14 C14        10.1966   35.8158   -0.8498 C.3     1  <0>         0.0209
     15 C15        10.5526   36.7346   -2.0979 C.2     1  <0>         0.0489
     16 O1         10.6942   36.1999   -3.2200 O.co2   1  <0>        -0.5492
     17 O2         10.6767   37.9555   -1.9627 O.co2   1  <0>        -0.5492
     18 F1          6.2413   33.9380   -3.2021 F       1  <0>        -0.2048
     19 H1         10.0069   37.5090    0.5390 H       1  <0>         0.0239
     20 H2          8.4495   36.9623   -0.1695 H       1  <0>         0.0239
     21 H3          9.2392   35.9929    1.1205 H       1  <0>         0.0239
     22 H4          4.9985   27.8333   -3.8167 H       1  <0>         0.0618
     23 H5          7.5069   27.7117   -3.6865 H       1  <0>         0.0618
     24 H6          3.7729   29.9040   -3.0969 H       1  <0>         0.0618
     25 H7          8.8283   29.7665   -3.0376 H       1  <0>         0.0624
     26 H8          5.0463   31.9473   -2.4405 H       1  <0>         0.0624
     27 H9         10.7185   33.0326   -0.3982 H       1  <0>         0.0621
     28 H10         9.4873   31.0544   -1.3014 H       1  <0>         0.0625
     29 H11         7.7929   35.7243   -2.1693 H       1  <0>         0.0649
     30 H12        11.1262   35.4725   -0.3722 H       1  <0>         0.0406
@<TRIPOS>BOND
     1     1    14    1
     2     2     3   ar
     3     2     4   ar
     4     3     5   ar
     5     4     6   ar
     6     5    10   ar
     7     6    10   ar
     8     7     8   ar
     9     7    11   ar
    10     8    12   ar
    11     9    11   ar
    12     9    13   ar
    13    10    12    1
    14    11    14    1
    15    12    13   ar
    16    13    18    1
    17    14    15    1
    18    15    16    1
    19    15    17    2
    20     1    19    1
    21     1    20    1
    22     1    21    1
    23     2    22    1
    24     3    23    1
    25     4    24    1
    26     5    25    1
    27     6    26    1
    28     7    27    1
    29     8    28    1
    30     9    29    1
    31    14    30    1
@<TRIPOS>SUBSTRUCTURE
     1 <0>         1 TEMP              0 ****  ****    0 ROOT

