
##########                                Name:        FLP_501_1R9O
##########                    Molecular_Weight:             243.257
##########                DOCK_Rotatable_Bonds:                   3
##########                       Formal_Charge:             -0.9996
##########                     HBond_Acceptors:                   3
##########                        HBond_Donors:                   0
##########                         Heavy_Atoms:                  18
##########                            HA_RMSDs:               6.618
##########                            HA_RMSDh:               6.558
##########                            HA_RMSDm:               5.492
##########                          Grid_Score:           22.130222
##########                     Grid_vdw_energy:          -33.295158
##########                      Grid_es_energy:           55.425381
##########           Internal_energy_repulsive:            4.152938

@<TRIPOS>MOLECULE
FLP_501_1R9O
 30 31 1 0 0
SMALL
USER_CHARGES


@<TRIPOS>ATOM
      1 C1          7.7792   34.3236   -4.0385 C.3     1  <0>        -0.0532
      2 C2         -1.3695   33.1465   -1.4252 C.ar    1  <0>        -0.0617
      3 C3         -0.6117   31.9235   -1.4242 C.ar    1  <0>        -0.0612
      4 C4         -0.8023   34.3747   -1.9171 C.ar    1  <0>        -0.0612
      5 C5          0.7303   31.9162   -1.9825 C.ar    1  <0>        -0.0539
      6 C6          0.5164   34.3783   -2.4641 C.ar    1  <0>        -0.0539
      7 C7          5.1427   32.4996   -2.7429 C.ar    1  <0>        -0.0572
      8 C8          3.7890   32.4780   -2.2686 C.ar    1  <0>        -0.0510
      9 C9          4.4397   33.7552   -4.7725 C.ar    1  <0>        -0.0221
     10 C10         1.3519   33.1464   -2.5012 C.ar    1  <0>        -0.0151
     11 C11         5.4724   33.0827   -4.0353 C.ar    1  <0>        -0.0363
     12 C12         2.6940   33.1727   -3.0139 C.ar    1  <0>         0.0173
     13 C13         3.0684   33.7370   -4.3411 C.ar    1  <0>         0.1313
     14 C14         6.9403   33.1217   -4.6041 C.3     1  <0>         0.0209
     15 C15         6.9040   33.1531   -6.1936 C.2     1  <0>         0.0489
     16 O1          6.7371   32.0801   -6.8148 O.co2   1  <0>        -0.5492
     17 O2          7.0282   34.2198   -6.8027 O.co2   1  <0>        -0.5492
     18 F1          2.1715   34.4050   -5.1664 F       1  <0>        -0.2048
     19 H1          8.7912   34.2998   -4.4689 H       1  <0>         0.0239
     20 H2          7.2890   35.2711   -4.3069 H       1  <0>         0.0239
     21 H3          7.8446   34.2417   -2.9435 H       1  <0>         0.0239
     22 H4         -2.3823   33.1431   -1.0502 H       1  <0>         0.0618
     23 H5         -1.0359   31.0196   -1.0125 H       1  <0>         0.0618
     24 H6         -1.3726   35.2908   -1.8724 H       1  <0>         0.0618
     25 H7          1.2833   30.9892   -2.0176 H       1  <0>         0.0624
     26 H8          0.9184   35.2985   -2.8615 H       1  <0>         0.0624
     27 H9          5.9277   32.0776   -2.1329 H       1  <0>         0.0621
     28 H10         3.5560   31.9499   -1.3558 H       1  <0>         0.0625
     29 H11         4.7000   34.2887   -5.6748 H       1  <0>         0.0649
     30 H12         7.4480   32.2054   -4.2686 H       1  <0>         0.0406
@<TRIPOS>BOND
     1     1    14    1
     2     2     3   ar
     3     2     4   ar
     4     3     5   ar
     5     4     6   ar
     6     5    10   ar
     7     6    10   ar
     8     7     8   ar
     9     7    11   ar
    10     8    12   ar
    11     9    11   ar
    12     9    13   ar
    13    10    12    1
    14    11    14    1
    15    12    13   ar
    16    13    18    1
    17    14    15    1
    18    15    16    1
    19    15    17    2
    20     1    19    1
    21     1    20    1
    22     1    21    1
    23     2    22    1
    24     3    23    1
    25     4    24    1
    26     5    25    1
    27     6    26    1
    28     7    27    1
    29     8    28    1
    30     9    29    1
    31    14    30    1
@<TRIPOS>SUBSTRUCTURE
     1 <0>         1 TEMP              0 ****  ****    0 ROOT

