
##########                                Name:        FLP_501_1R9O
##########                    Molecular_Weight:             243.257
##########                DOCK_Rotatable_Bonds:                   3
##########                       Formal_Charge:             -0.9996
##########                     HBond_Acceptors:                   3
##########                        HBond_Donors:                   0
##########                         Heavy_Atoms:                  18
##########                            HA_RMSDs:               6.845
##########                            HA_RMSDh:               6.703
##########                            HA_RMSDm:               5.575
##########                          Grid_Score:           22.349392
##########                     Grid_vdw_energy:          -33.231674
##########                      Grid_es_energy:           55.581066
##########           Internal_energy_repulsive:            8.665367

@<TRIPOS>MOLECULE
FLP_501_1R9O
 30 31 1 0 0
SMALL
USER_CHARGES


@<TRIPOS>ATOM
      1 C1          7.7741   32.5694   -4.0505 C.3     1  <0>        -0.0532
      2 C2         -1.4146   33.3465   -1.4207 C.ar    1  <0>        -0.0617
      3 C3         -0.9280   32.0173   -1.6789 C.ar    1  <0>        -0.0612
      4 C4         -0.6138   34.5048   -1.7192 C.ar    1  <0>        -0.0612
      5 C5          0.3721   31.8436   -2.3052 C.ar    1  <0>        -0.0539
      6 C6          0.6660   34.3441   -2.3311 C.ar    1  <0>        -0.0539
      7 C7          4.5742   31.3690   -3.6245 C.ar    1  <0>        -0.0572
      8 C8          3.2600   31.5468   -3.0774 C.ar    1  <0>        -0.0510
      9 C9          4.5136   33.6631   -4.5855 C.ar    1  <0>        -0.0221
     10 C10         1.2260   32.9979   -2.6328 C.ar    1  <0>        -0.0151
     11 C11         5.1895   32.4041   -4.4424 C.ar    1  <0>        -0.0363
     12 C12         2.5341   32.8480   -3.2083 C.ar    1  <0>         0.0173
     13 C13         3.1877   33.8724   -4.0706 C.ar    1  <0>         0.1313
     14 C14         6.6244   32.2525   -5.0732 C.3     1  <0>         0.0209
     15 C15         6.7465   33.1696   -6.3666 C.2     1  <0>         0.0489
     16 O1          6.0962   32.8600   -7.3895 O.co2   1  <0>        -0.5492
     17 O2          7.4628   34.1751   -6.3570 O.co2   1  <0>        -0.5492
     18 F1          2.6449   35.1299   -4.3063 F       1  <0>        -0.2048
     19 H1          8.7492   32.4475   -4.5448 H       1  <0>         0.0239
     20 H2          7.6714   33.6045   -3.6928 H       1  <0>         0.0239
     21 H3          7.7067   31.8781   -3.1975 H       1  <0>         0.0239
     22 H4         -2.3986   33.4775   -0.9952 H       1  <0>         0.0618
     23 H5         -1.5230   31.1570   -1.4100 H       1  <0>         0.0618
     24 H6         -0.9801   35.4925   -1.4809 H       1  <0>         0.0618
     25 H7          0.7193   30.8471   -2.5350 H       1  <0>         0.0624
     26 H8          1.2430   35.2219   -2.5818 H       1  <0>         0.0624
     27 H9          5.1142   30.4549   -3.4269 H       1  <0>         0.0621
     28 H10         2.7857   30.7254   -2.5611 H       1  <0>         0.0625
     29 H11         5.0145   34.4741   -5.0933 H       1  <0>         0.0649
     30 H12         6.7481   31.1979   -5.3604 H       1  <0>         0.0406
@<TRIPOS>BOND
     1     1    14    1
     2     2     3   ar
     3     2     4   ar
     4     3     5   ar
     5     4     6   ar
     6     5    10   ar
     7     6    10   ar
     8     7     8   ar
     9     7    11   ar
    10     8    12   ar
    11     9    11   ar
    12     9    13   ar
    13    10    12    1
    14    11    14    1
    15    12    13   ar
    16    13    18    1
    17    14    15    1
    18    15    16    1
    19    15    17    2
    20     1    19    1
    21     1    20    1
    22     1    21    1
    23     2    22    1
    24     3    23    1
    25     4    24    1
    26     5    25    1
    27     6    26    1
    28     7    27    1
    29     8    28    1
    30     9    29    1
    31    14    30    1
@<TRIPOS>SUBSTRUCTURE
     1 <0>         1 TEMP              0 ****  ****    0 ROOT

