
##########                                Name:      UI3_A1001_1SQT
##########                    Molecular_Weight:             349.434
##########                DOCK_Rotatable_Bonds:                   3
##########                       Formal_Charge:                   1
##########                     HBond_Acceptors:                   8
##########                        HBond_Donors:                   5
##########                         Heavy_Atoms:                  24
##########                            HA_RMSDs:               0.438
##########                            HA_RMSDh:               0.438
##########                            HA_RMSDm:               0.438
##########                          Grid_Score:         -128.798981
##########                     Grid_vdw_energy:          -49.883923
##########                      Grid_es_energy:          -78.915054
##########           Internal_energy_repulsive:           15.615116

@<TRIPOS>MOLECULE
UI3_A1001_1SQT
 45 47 1 0 0
SMALL
USER_CHARGES


@<TRIPOS>ATOM
      1 C1         26.0161   15.1309   34.1378 C.3     1  <0>         0.0430
      2 C2         24.6745   17.7481   39.5182 C.3     1  <0>         0.0747
      3 C3         19.8924   16.3560   32.0390 C.ar    1  <0>        -0.0532
      4 C4         22.0094   15.2212   32.2630 C.ar    1  <0>        -0.0516
      5 C5         19.0313   17.3655   32.4306 C.ar    1  <0>        -0.0464
      6 C6         23.2799   15.0626   32.8793 C.ar    1  <0>        -0.0308
      7 C7         20.7185   18.2534   34.0050 C.ar    1  <0>        -0.0389
      8 C8         23.7248   19.5195   34.8285 C.3     1  <0>         0.0235
      9 C9         23.9956   17.8935   36.3409 C.3     1  <0>         0.0540
     10 C10        21.1727   16.2825   32.6316 C.ar    1  <0>        -0.0174
     11 C11        19.4383   18.3047   33.4049 C.ar    1  <0>         0.0616
     12 C12        23.7020   16.0030   33.8774 C.ar    1  <0>         0.0799
     13 C13        21.6109   17.2405   33.6183 C.ar    1  <0>        -0.0111
     14 C14        22.8958   17.0924   34.2213 C.ar    1  <0>        -0.0038
     15 C15        23.5147   18.1133   35.1130 C.3     1  <0>         0.0198
     16 C16        18.5249   19.3619   33.8038 C.cat   1  <0>         0.2605
     17 N1         17.1912   19.2499   33.5421 N.pl3   1  <0>        -0.3060
     18 N2         18.9364   20.4359   34.4234 N.pl3   1  <0>        -0.2158
     19 N3         24.4367   20.0133   35.8772 N.3     1  <0>        -0.2243
     20 N4         24.1199   19.1857   37.0367 N.pl3   1  <0>        -0.1716
     21 O1         24.4511   20.4297   39.2505 O.2     1  <0>        -0.1544
     22 O2         26.3490   19.2471   38.1889 O.2     1  <0>        -0.1544
     23 O3         24.9391   15.9448   34.5920 O.3     1  <0>        -0.3476
     24 S1         24.9638   19.2430   38.5904 S.o2    1  <0>         0.0513
     25 H1         26.8677   15.2307   34.8269 H       1  <0>         0.0529
     26 H2         25.6926   14.0801   34.1048 H       1  <0>         0.0529
     27 H3         26.3196   15.4531   33.1309 H       1  <0>         0.0529
     28 H4         25.2069   17.8036   40.4792 H       1  <0>         0.0483
     29 H5         23.5960   17.6341   39.7028 H       1  <0>         0.0483
     30 H6         25.0419   16.8841   38.9451 H       1  <0>         0.0483
     31 H7         19.5909   15.6360   31.2926 H       1  <0>         0.0624
     32 H8         21.6874   14.5204   31.5071 H       1  <0>         0.0624
     33 H9         18.0472   17.4357   31.9914 H       1  <0>         0.0626
     34 H10        23.9225   14.2411   32.5988 H       1  <0>         0.0644
     35 H11        21.0051   18.9820   34.7490 H       1  <0>         0.0632
     36 H12        24.2817   19.6457   33.8884 H       1  <0>         0.0448
     37 H13        22.7623   20.0434   34.7325 H       1  <0>         0.0448
     38 H14        23.3099   17.2369   36.8965 H       1  <0>         0.0500
     39 H15        24.9822   17.4118   36.2729 H       1  <0>         0.0500
     40 H16        23.0091   17.4329   34.4119 H       1  <0>         0.0379
     41 H17        16.5638   19.9762   33.8228 H       1  <0>         0.1477
     42 H18        16.8407   18.4413   33.0695 H       1  <0>         0.1477
     43 H19        18.2802   21.1421   34.6893 H       1  <0>         0.4359
     44 H20        19.9075   20.5517   34.6317 H       1  <0>         0.4359
     45 H21        25.4164   19.9740   35.6805 H       1  <0>         0.1457
@<TRIPOS>BOND
     1     1    23    1
     2     2    24    1
     3     3     5   ar
     4     3    10   ar
     5     4     6   ar
     6     4    10   ar
     7     5    11   ar
     8     6    12   ar
     9     7    11   ar
    10     7    13   ar
    11     8    15    1
    12     8    19    1
    13     9    15    1
    14     9    20    1
    15    10    13   ar
    16    11    16    1
    17    12    14   ar
    18    12    23    1
    19    13    14   ar
    20    14    15    1
    21    16    17    1
    22    16    18    2
    23    19    20    1
    24    20    24    1
    25    21    24    2
    26    22    24    2
    27     1    25    1
    28     1    26    1
    29     1    27    1
    30     2    28    1
    31     2    29    1
    32     2    30    1
    33     3    31    1
    34     4    32    1
    35     5    33    1
    36     6    34    1
    37     7    35    1
    38     8    36    1
    39     8    37    1
    40     9    38    1
    41     9    39    1
    42    15    40    1
    43    17    41    1
    44    17    42    1
    45    18    43    1
    46    18    44    1
    47    19    45    1
@<TRIPOS>SUBSTRUCTURE
     1 <0>         1 TEMP              0 ****  ****    0 ROOT

