
##########                                Name:      UI3_A1001_1SQT
##########                    Molecular_Weight:             349.434
##########                DOCK_Rotatable_Bonds:                   3
##########                       Formal_Charge:                   1
##########                     HBond_Acceptors:                   8
##########                        HBond_Donors:                   5
##########                         Heavy_Atoms:                  24
##########                            HA_RMSDs:               0.588
##########                            HA_RMSDh:               0.588
##########                            HA_RMSDm:               0.588
##########                          Grid_Score:         -125.965530
##########                     Grid_vdw_energy:          -46.371353
##########                      Grid_es_energy:          -79.594177
##########           Internal_energy_repulsive:           14.409658

@<TRIPOS>MOLECULE
UI3_A1001_1SQT
 45 47 1 0 0
SMALL
USER_CHARGES


@<TRIPOS>ATOM
      1 C1         26.0982   15.1420   33.7769 C.3     1  <0>         0.0430
      2 C2         24.1697   18.2463   39.5599 C.3     1  <0>         0.0747
      3 C3         19.9289   16.3927   31.8377 C.ar    1  <0>        -0.0532
      4 C4         22.0744   15.2969   31.9609 C.ar    1  <0>        -0.0516
      5 C5         19.0600   17.3709   32.2874 C.ar    1  <0>        -0.0464
      6 C6         23.3665   15.1462   32.5328 C.ar    1  <0>        -0.0308
      7 C7         20.7770   18.2450   33.8371 C.ar    1  <0>        -0.0389
      8 C8         23.8333   19.5370   34.5853 C.3     1  <0>         0.0235
      9 C9         24.0827   17.8928   36.0817 C.3     1  <0>         0.0540
     10 C10        21.2282   16.3281   32.3884 C.ar    1  <0>        -0.0174
     11 C11        19.4779   18.2877   33.2782 C.ar    1  <0>         0.0616
     12 C12        23.8001   16.0638   33.5471 C.ar    1  <0>         0.0799
     13 C13        21.6773   17.2639   33.3913 C.ar    1  <0>        -0.0111
     14 C14        22.9831   17.1244   33.9499 C.ar    1  <0>        -0.0038
     15 C15        23.6085   18.1300   34.8544 C.3     1  <0>         0.0198
     16 C16        18.5560   19.3122   33.7383 C.cat   1  <0>         0.2605
     17 N1         17.2174   19.1800   33.5139 N.pl3   1  <0>        -0.3060
     18 N2         18.9647   20.3748   34.3790 N.pl3   1  <0>        -0.2158
     19 N3         24.5461   20.0129   35.6417 N.3     1  <0>        -0.2243
     20 N4         24.2169   19.1765   36.7914 N.pl3   1  <0>        -0.1716
     21 O1         25.1443   20.6160   38.6954 O.2     1  <0>        -0.1544
     22 O2         26.2843   18.5152   38.0518 O.2     1  <0>        -0.1544
     23 O3         25.0599   16.0097   34.2214 O.3     1  <0>        -0.3476
     24 S1         25.0555   19.2094   38.3486 S.o2    1  <0>         0.0513
     25 H1         26.9760   15.2552   34.4300 H       1  <0>         0.0529
     26 H2         25.7461   14.1005   33.8133 H       1  <0>         0.0529
     27 H3         26.3743   15.4000   32.7439 H       1  <0>         0.0529
     28 H4         24.7066   18.2796   40.5194 H       1  <0>         0.0483
     29 H5         23.1594   18.6614   39.6907 H       1  <0>         0.0483
     30 H6         24.0964   17.2037   39.2169 H       1  <0>         0.0483
     31 H7         19.6189   15.6901   31.0782 H       1  <0>         0.0624
     32 H8         21.7434   14.6133   31.1931 H       1  <0>         0.0624
     33 H9         18.0614   17.4338   31.8807 H       1  <0>         0.0626
     34 H10        24.0166   14.3477   32.2068 H       1  <0>         0.0644
     35 H11        21.0716   18.9559   34.5949 H       1  <0>         0.0632
     36 H12        24.3950   19.6674   33.6486 H       1  <0>         0.0448
     37 H13        22.8764   20.0712   34.4913 H       1  <0>         0.0448
     38 H14        23.3886   17.2372   36.6279 H       1  <0>         0.0500
     39 H15        25.0647   17.4022   36.0123 H       1  <0>         0.0500
     40 H16        23.0990   17.4618   34.1445 H       1  <0>         0.0379
     41 H17        16.5844   19.8837   33.8366 H       1  <0>         0.1477
     42 H18        16.8688   18.3793   33.0267 H       1  <0>         0.1477
     43 H19        18.3029   21.0582   34.6871 H       1  <0>         0.4359
     44 H20        19.9393   20.5048   34.5612 H       1  <0>         0.4359
     45 H21        25.5261   19.9661   35.4482 H       1  <0>         0.1457
@<TRIPOS>BOND
     1     1    23    1
     2     2    24    1
     3     3     5   ar
     4     3    10   ar
     5     4     6   ar
     6     4    10   ar
     7     5    11   ar
     8     6    12   ar
     9     7    11   ar
    10     7    13   ar
    11     8    15    1
    12     8    19    1
    13     9    15    1
    14     9    20    1
    15    10    13   ar
    16    11    16    1
    17    12    14   ar
    18    12    23    1
    19    13    14   ar
    20    14    15    1
    21    16    17    1
    22    16    18    2
    23    19    20    1
    24    20    24    1
    25    21    24    2
    26    22    24    2
    27     1    25    1
    28     1    26    1
    29     1    27    1
    30     2    28    1
    31     2    29    1
    32     2    30    1
    33     3    31    1
    34     4    32    1
    35     5    33    1
    36     6    34    1
    37     7    35    1
    38     8    36    1
    39     8    37    1
    40     9    38    1
    41     9    39    1
    42    15    40    1
    43    17    41    1
    44    17    42    1
    45    18    43    1
    46    18    44    1
    47    19    45    1
@<TRIPOS>SUBSTRUCTURE
     1 <0>         1 TEMP              0 ****  ****    0 ROOT

