
##########                                Name:      UI3_A1001_1SQT
##########                    Molecular_Weight:             349.434
##########                DOCK_Rotatable_Bonds:                   3
##########                       Formal_Charge:                   1
##########                     HBond_Acceptors:                   8
##########                        HBond_Donors:                   5
##########                         Heavy_Atoms:                  24
##########                            HA_RMSDs:               0.507
##########                            HA_RMSDh:               0.507
##########                            HA_RMSDm:               0.507
##########                          Grid_Score:         -124.502983
##########                     Grid_vdw_energy:          -43.413483
##########                      Grid_es_energy:          -81.089500
##########           Internal_energy_repulsive:           12.584060

@<TRIPOS>MOLECULE
UI3_A1001_1SQT
 45 47 1 0 0
SMALL
USER_CHARGES


@<TRIPOS>ATOM
      1 C1         25.8050   14.6736   34.1353 C.3     1  <0>         0.0430
      2 C2         24.2266   17.9217   39.6172 C.3     1  <0>         0.0747
      3 C3         19.8683   16.5357   32.0026 C.ar    1  <0>        -0.0532
      4 C4         21.9479   15.3161   32.0891 C.ar    1  <0>        -0.0516
      5 C5         19.0629   17.5578   32.4724 C.ar    1  <0>        -0.0464
      6 C6         23.2354   15.0847   32.6440 C.ar    1  <0>        -0.0308
      7 C7         20.8453   18.3143   34.0102 C.ar    1  <0>        -0.0389
      8 C8         24.0732   19.3875   34.6963 C.3     1  <0>         0.0235
      9 C9         24.0626   17.7759   36.2479 C.3     1  <0>         0.0540
     10 C10        21.1679   16.3900   32.5370 C.ar    1  <0>        -0.0174
     11 C11        19.5446   18.4382   33.4673 C.ar    1  <0>         0.0616
     12 C12        23.7332   15.9647   33.6622 C.ar    1  <0>         0.0799
     13 C13        21.6820   17.2875   33.5438 C.ar    1  <0>        -0.0111
     14 C14        22.9837   17.0666   34.0853 C.ar    1  <0>        -0.0038
     15 C15        23.6767   18.0245   34.9922 C.3     1  <0>         0.0198
     16 C16        18.6891   19.5095   33.9486 C.cat   1  <0>         0.2605
     17 N1         17.3426   19.4575   33.7389 N.pl3   1  <0>        -0.3060
     18 N2         19.1661   20.5397   34.5949 N.pl3   1  <0>        -0.2158
     19 N3         24.7853   19.8146   35.7739 N.3     1  <0>        -0.2243
     20 N4         24.3091   19.0590   36.9280 N.pl3   1  <0>        -0.1716
     21 O1         25.0152   20.4272   38.9743 O.2     1  <0>        -0.1544
     22 O2         26.3715   18.4906   38.2410 O.2     1  <0>        -0.1544
     23 O3         24.9952   15.8305   34.3207 O.3     1  <0>        -0.3476
     24 S1         25.0719   19.0484   38.5240 S.o2    1  <0>         0.0513
     25 H1         26.7267   14.7719   34.7277 H       1  <0>         0.0529
     26 H2         25.2512   13.7821   34.4643 H       1  <0>         0.0529
     27 H3         26.0626   14.5733   33.0707 H       1  <0>         0.0529
     28 H4         24.7155   17.9299   40.6025 H       1  <0>         0.0483
     29 H5         23.1775   18.2342   39.7260 H       1  <0>         0.0483
     30 H6         24.2650   16.9056   39.1975 H       1  <0>         0.0483
     31 H7         19.5095   15.8604   31.2400 H       1  <0>         0.0624
     32 H8         21.5689   14.6611   31.3186 H       1  <0>         0.0624
     33 H9         18.0651   17.6828   32.0784 H       1  <0>         0.0626
     34 H10        23.8343   14.2534   32.3023 H       1  <0>         0.0644
     35 H11        21.1893   18.9988   34.7714 H       1  <0>         0.0632
     36 H12        24.6894   19.4229   33.7859 H       1  <0>         0.0448
     37 H13        23.1889   20.0228   34.5396 H       1  <0>         0.0448
     38 H14        23.2733   17.2211   36.7763 H       1  <0>         0.0500
     39 H15        24.9844   17.1758   36.2415 H       1  <0>         0.0500
     40 H16        23.1281   17.3950   34.2761 H       1  <0>         0.0379
     41 H17        16.7552   20.1932   34.0762 H       1  <0>         0.1477
     42 H18        16.9426   18.6836   33.2479 H       1  <0>         0.1477
     43 H19        18.5486   21.2570   34.9177 H       1  <0>         0.4359
     44 H20        20.1486   20.6110   34.7667 H       1  <0>         0.4359
     45 H21        25.7614   19.6513   35.6313 H       1  <0>         0.1457
@<TRIPOS>BOND
     1     1    23    1
     2     2    24    1
     3     3     5   ar
     4     3    10   ar
     5     4     6   ar
     6     4    10   ar
     7     5    11   ar
     8     6    12   ar
     9     7    11   ar
    10     7    13   ar
    11     8    15    1
    12     8    19    1
    13     9    15    1
    14     9    20    1
    15    10    13   ar
    16    11    16    1
    17    12    14   ar
    18    12    23    1
    19    13    14   ar
    20    14    15    1
    21    16    17    1
    22    16    18    2
    23    19    20    1
    24    20    24    1
    25    21    24    2
    26    22    24    2
    27     1    25    1
    28     1    26    1
    29     1    27    1
    30     2    28    1
    31     2    29    1
    32     2    30    1
    33     3    31    1
    34     4    32    1
    35     5    33    1
    36     6    34    1
    37     7    35    1
    38     8    36    1
    39     8    37    1
    40     9    38    1
    41     9    39    1
    42    15    40    1
    43    17    41    1
    44    17    42    1
    45    18    43    1
    46    18    44    1
    47    19    45    1
@<TRIPOS>SUBSTRUCTURE
     1 <0>         1 TEMP              0 ****  ****    0 ROOT

