
##########                                Name:      UI3_A1001_1SQT
##########                    Molecular_Weight:             349.434
##########                DOCK_Rotatable_Bonds:                   3
##########                       Formal_Charge:                   1
##########                     HBond_Acceptors:                   8
##########                        HBond_Donors:                   5
##########                         Heavy_Atoms:                  24
##########                            HA_RMSDs:               0.913
##########                            HA_RMSDh:               0.913
##########                            HA_RMSDm:               0.847
##########                          Grid_Score:         -123.472504
##########                     Grid_vdw_energy:          -43.299404
##########                      Grid_es_energy:          -80.173103
##########           Internal_energy_repulsive:           11.338659

@<TRIPOS>MOLECULE
UI3_A1001_1SQT
 45 47 1 0 0
SMALL
USER_CHARGES


@<TRIPOS>ATOM
      1 C1         26.6158   15.1317   33.9285 C.3     1  <0>         0.0430
      2 C2         24.2390   17.7099   39.8843 C.3     1  <0>         0.0747
      3 C3         20.3575   16.1587   32.1425 C.ar    1  <0>        -0.0532
      4 C4         22.5341   15.1208   32.2102 C.ar    1  <0>        -0.0516
      5 C5         19.4611   17.0870   32.6413 C.ar    1  <0>        -0.0464
      6 C6         23.8306   14.9787   32.7741 C.ar    1  <0>        -0.0308
      7 C7         21.1537   17.9301   34.2344 C.ar    1  <0>        -0.0389
      8 C8         24.3656   19.2201   34.9793 C.3     1  <0>         0.0235
      9 C9         24.2890   17.6056   36.5260 C.3     1  <0>         0.0540
     10 C10        21.6588   16.1038   32.6896 C.ar    1  <0>        -0.0174
     11 C11        19.8533   17.9636   33.6780 C.ar    1  <0>         0.0616
     12 C12        24.2386   15.8554   33.8342 C.ar    1  <0>         0.0799
     13 C13        22.0816   16.9997   33.7393 C.ar    1  <0>        -0.0111
     14 C14        23.3916   16.8698   34.2905 C.ar    1  <0>        -0.0038
     15 C15        23.9885   17.8455   35.2455 C.3     1  <0>         0.0198
     16 C16        18.9025   18.9360   34.1896 C.cat   1  <0>         0.2605
     17 N1         17.5681   18.7766   33.9582 N.pl3   1  <0>        -0.3060
     18 N2         19.2809   19.9758   34.8839 N.pl3   1  <0>        -0.2158
     19 N3         24.9846   19.6654   36.1058 N.3     1  <0>        -0.2243
     20 N4         24.4479   18.8938   37.2222 N.pl3   1  <0>        -0.1716
     21 O1         24.9211   20.2675   39.3309 O.2     1  <0>        -0.1544
     22 O2         26.4401   18.4261   38.6757 O.2     1  <0>        -0.1544
     23 O3         25.5001   15.8035   34.5053 O.3     1  <0>        -0.3476
     24 S1         25.0925   18.9020   38.8695 S.o2    1  <0>         0.0513
     25 H1         27.4810   15.2108   34.6032 H       1  <0>         0.0529
     26 H2         26.3660   14.0714   33.7755 H       1  <0>         0.0529
     27 H3         26.8618   15.5939   32.9612 H       1  <0>         0.0529
     28 H4         24.6540   17.7307   40.9028 H       1  <0>         0.0483
     29 H5         23.1680   17.9586   39.9198 H       1  <0>         0.0483
     30 H6         24.3683   16.7049   39.4564 H       1  <0>         0.0483
     31 H7         20.0672   15.4872   31.3480 H       1  <0>         0.0624
     32 H8         22.2221   14.4681   31.4083 H       1  <0>         0.0624
     33 H9         18.4606   17.1416   32.2381 H       1  <0>         0.0626
     34 H10        24.5033   14.2172   32.4078 H       1  <0>         0.0644
     35 H11        21.4284   18.6096   35.0277 H       1  <0>         0.0632
     36 H12        25.0452   19.2753   34.1161 H       1  <0>         0.0448
     37 H13        23.4770   19.8298   34.7586 H       1  <0>         0.0448
     38 H14        23.4798   17.0269   36.9954 H       1  <0>         0.0500
     39 H15        25.2259   17.0325   36.5867 H       1  <0>         0.0500
     40 H16        23.5120   17.2019   34.4913 H       1  <0>         0.0379
     41 H17        16.9153   19.4442   34.3163 H       1  <0>         0.1477
     42 H18        17.2424   17.9921   33.4305 H       1  <0>         0.1477
     43 H19        18.5999   20.6231   35.2264 H       1  <0>         0.4359
     44 H20        20.2516   20.1246   35.0729 H       1  <0>         0.4359
     45 H21        25.9729   19.5308   36.0347 H       1  <0>         0.1457
@<TRIPOS>BOND
     1     1    23    1
     2     2    24    1
     3     3     5   ar
     4     3    10   ar
     5     4     6   ar
     6     4    10   ar
     7     5    11   ar
     8     6    12   ar
     9     7    11   ar
    10     7    13   ar
    11     8    15    1
    12     8    19    1
    13     9    15    1
    14     9    20    1
    15    10    13   ar
    16    11    16    1
    17    12    14   ar
    18    12    23    1
    19    13    14   ar
    20    14    15    1
    21    16    17    1
    22    16    18    2
    23    19    20    1
    24    20    24    1
    25    21    24    2
    26    22    24    2
    27     1    25    1
    28     1    26    1
    29     1    27    1
    30     2    28    1
    31     2    29    1
    32     2    30    1
    33     3    31    1
    34     4    32    1
    35     5    33    1
    36     6    34    1
    37     7    35    1
    38     8    36    1
    39     8    37    1
    40     9    38    1
    41     9    39    1
    42    15    40    1
    43    17    41    1
    44    17    42    1
    45    18    43    1
    46    18    44    1
    47    19    45    1
@<TRIPOS>SUBSTRUCTURE
     1 <0>         1 TEMP              0 ****  ****    0 ROOT

