
##########                                Name:      UI3_A1001_1SQT
##########                    Molecular_Weight:             349.434
##########                DOCK_Rotatable_Bonds:                   3
##########                       Formal_Charge:                   1
##########                     HBond_Acceptors:                   8
##########                        HBond_Donors:                   5
##########                         Heavy_Atoms:                  24
##########                            HA_RMSDs:               0.867
##########                            HA_RMSDh:               0.867
##########                            HA_RMSDm:               0.797
##########                          Grid_Score:         -125.541389
##########                     Grid_vdw_energy:          -47.329605
##########                      Grid_es_energy:          -78.211784
##########           Internal_energy_repulsive:           12.833747

@<TRIPOS>MOLECULE
UI3_A1001_1SQT
 45 47 1 0 0
SMALL
USER_CHARGES


@<TRIPOS>ATOM
      1 C1         26.7160   15.6338   33.9423 C.3     1  <0>         0.0430
      2 C2         24.3459   17.7849   39.7963 C.3     1  <0>         0.0747
      3 C3         20.4497   16.1440   31.9700 C.ar    1  <0>        -0.0532
      4 C4         22.6682   15.2124   32.1424 C.ar    1  <0>        -0.0516
      5 C5         19.4905   17.0349   32.4175 C.ar    1  <0>        -0.0464
      6 C6         23.9454   15.1399   32.7610 C.ar    1  <0>        -0.0308
      7 C7         21.0738   17.9793   34.0653 C.ar    1  <0>        -0.0389
      8 C8         24.0632   19.4606   34.9556 C.3     1  <0>         0.0235
      9 C9         24.2399   17.8090   36.4541 C.3     1  <0>         0.0540
     10 C10        21.7283   16.1587   32.5706 C.ar    1  <0>        -0.0174
     11 C11        19.7975   17.9431   33.4557 C.ar    1  <0>         0.0616
     12 C12        24.2672   16.0493   33.8232 C.ar    1  <0>         0.0799
     13 C13        22.0644   17.0878   33.6228 C.ar    1  <0>        -0.0111
     14 C14        23.3550   17.0281   34.2289 C.ar    1  <0>        -0.0038
     15 C15        23.8650   18.0439   35.1924 C.3     1  <0>         0.0198
     16 C16        18.7815   18.8757   33.9131 C.cat   1  <0>         0.2605
     17 N1         17.4669   18.6496   33.6299 N.pl3   1  <0>        -0.3060
     18 N2         19.0812   19.9417   34.6063 N.pl3   1  <0>        -0.2158
     19 N3         24.6656   19.9484   36.0736 N.3     1  <0>        -0.2243
     20 N4         24.2680   19.0883   37.1834 N.pl3   1  <0>        -0.1716
     21 O1         24.6094   20.4362   39.3339 O.2     1  <0>        -0.1544
     22 O2         26.3635   18.8761   38.5487 O.2     1  <0>        -0.1544
     23 O3         25.5009   16.0667   34.5460 O.3     1  <0>        -0.3476
     24 S1         24.9680   19.1319   38.8074 S.o2    1  <0>         0.0513
     25 H1         27.5393   15.7280   34.6658 H       1  <0>         0.0529
     26 H2         26.6177   14.5826   33.6337 H       1  <0>         0.0529
     27 H3         26.9296   16.2564   33.0611 H       1  <0>         0.0529
     28 H4         24.7925   17.8298   40.8006 H       1  <0>         0.0483
     29 H5         23.2518   17.8648   39.8779 H       1  <0>         0.0483
     30 H6         24.6094   16.8287   39.3205 H       1  <0>         0.0483
     31 H7         20.2247   15.4488   31.1747 H       1  <0>         0.0624
     32 H8         22.4210   14.5348   31.3386 H       1  <0>         0.0624
     33 H9         18.5062   17.0363   31.9730 H       1  <0>         0.0626
     34 H10        24.6679   14.4066   32.4342 H       1  <0>         0.0644
     35 H11        21.2830   18.6817   34.8586 H       1  <0>         0.0632
     36 H12        24.6985   19.6206   34.0720 H       1  <0>         0.0448
     37 H13        23.0999   19.9632   34.7838 H       1  <0>         0.0448
     38 H14        23.5246   17.1240   36.9328 H       1  <0>         0.0500
     39 H15        25.2407   17.3527   36.4655 H       1  <0>         0.0500
     40 H16        23.4419   17.3670   34.4356 H       1  <0>         0.0379
     41 H17        16.7689   19.2899   33.9507 H       1  <0>         0.1477
     42 H18        17.2007   17.8435   33.1014 H       1  <0>         0.1477
     43 H19        18.3568   20.5601   34.9107 H       1  <0>         0.4359
     44 H20        20.0350   20.1392   34.8324 H       1  <0>         0.4359
     45 H21        25.6596   19.9369   35.9649 H       1  <0>         0.1457
@<TRIPOS>BOND
     1     1    23    1
     2     2    24    1
     3     3     5   ar
     4     3    10   ar
     5     4     6   ar
     6     4    10   ar
     7     5    11   ar
     8     6    12   ar
     9     7    11   ar
    10     7    13   ar
    11     8    15    1
    12     8    19    1
    13     9    15    1
    14     9    20    1
    15    10    13   ar
    16    11    16    1
    17    12    14   ar
    18    12    23    1
    19    13    14   ar
    20    14    15    1
    21    16    17    1
    22    16    18    2
    23    19    20    1
    24    20    24    1
    25    21    24    2
    26    22    24    2
    27     1    25    1
    28     1    26    1
    29     1    27    1
    30     2    28    1
    31     2    29    1
    32     2    30    1
    33     3    31    1
    34     4    32    1
    35     5    33    1
    36     6    34    1
    37     7    35    1
    38     8    36    1
    39     8    37    1
    40     9    38    1
    41     9    39    1
    42    15    40    1
    43    17    41    1
    44    17    42    1
    45    18    43    1
    46    18    44    1
    47    19    45    1
@<TRIPOS>SUBSTRUCTURE
     1 <0>         1 TEMP              0 ****  ****    0 ROOT

