
##########                                Name:      UI3_A1001_1SQT
##########                    Molecular_Weight:             349.434
##########                DOCK_Rotatable_Bonds:                   3
##########                       Formal_Charge:                   1
##########                     HBond_Acceptors:                   8
##########                        HBond_Donors:                   5
##########                         Heavy_Atoms:                  24
##########                            HA_RMSDs:               0.302
##########                            HA_RMSDh:               0.302
##########                            HA_RMSDm:               0.302
##########                          Grid_Score:         -128.324661
##########                     Grid_vdw_energy:          -47.384624
##########                      Grid_es_energy:          -80.940041
##########           Internal_energy_repulsive:           12.575054

@<TRIPOS>MOLECULE
UI3_A1001_1SQT
 45 47 1 0 0
SMALL
USER_CHARGES


@<TRIPOS>ATOM
      1 C1         25.5746   14.9121   34.1442 C.3     1  <0>         0.0430
      2 C2         24.1738   18.0491   39.5166 C.3     1  <0>         0.0747
      3 C3         19.5635   16.6228   32.0736 C.ar    1  <0>        -0.0532
      4 C4         21.6267   15.3826   32.2316 C.ar    1  <0>        -0.0516
      5 C5         18.7690   17.6767   32.4882 C.ar    1  <0>        -0.0464
      6 C6         22.9082   15.1623   32.8046 C.ar    1  <0>        -0.0308
      7 C7         20.5530   18.4849   33.9975 C.ar    1  <0>        -0.0389
      8 C8         23.7919   19.5490   34.6489 C.3     1  <0>         0.0235
      9 C9         23.7505   18.0163   36.2779 C.3     1  <0>         0.0540
     10 C10        20.8583   16.4869   32.6220 C.ar    1  <0>        -0.0174
     11 C11        19.2568   18.5986   33.4417 C.ar    1  <0>         0.0616
     12 C12        23.4120   16.0847   33.7815 C.ar    1  <0>         0.0799
     13 C13        21.3787   17.4260   33.5868 C.ar    1  <0>        -0.0111
     14 C14        22.6747   17.2154   34.1459 C.ar    1  <0>        -0.0038
     15 C15        23.3753   18.2076   35.0090 C.3     1  <0>         0.0198
     16 C16        18.4128   19.7028   33.8652 C.cat   1  <0>         0.2605
     17 N1         17.0669   19.6577   33.6505 N.pl3   1  <0>        -0.3060
     18 N2         18.8997   20.7573   34.4631 N.pl3   1  <0>        -0.2158
     19 N3         24.5034   20.0193   35.7087 N.3     1  <0>        -0.2243
     20 N4         24.0104   19.3280   36.8955 N.pl3   1  <0>        -0.1716
     21 O1         24.4237   20.6956   39.0207 O.2     1  <0>        -0.1544
     22 O2         26.1498   19.1265   38.1926 O.2     1  <0>        -0.1544
     23 O3         24.6688   15.9669   34.4531 O.3     1  <0>        -0.3476
     24 S1         24.7637   19.3861   38.4950 S.o2    1  <0>         0.0513
     25 H1         26.4743   15.0055   34.7703 H       1  <0>         0.0529
     26 H2         25.0905   13.9441   34.3403 H       1  <0>         0.0529
     27 H3         25.8587   14.9719   33.0832 H       1  <0>         0.0529
     28 H4         24.6535   18.1031   40.5050 H       1  <0>         0.0483
     29 H5         23.0831   18.1308   39.6335 H       1  <0>         0.0483
     30 H6         24.4208   17.0882   39.0413 H       1  <0>         0.0483
     31 H7         19.2000   15.9156   31.3427 H       1  <0>         0.0624
     32 H8         21.2433   14.6956   31.4918 H       1  <0>         0.0624
     33 H9         17.7750   17.7950   32.0828 H       1  <0>         0.0626
     34 H10        23.4981   14.3078   32.5074 H       1  <0>         0.0644
     35 H11        20.9019   19.2014   34.7264 H       1  <0>         0.0632
     36 H12        24.4138   19.5312   33.7418 H       1  <0>         0.0448
     37 H13        22.9173   20.1875   34.4554 H       1  <0>         0.0448
     38 H14        22.9507   17.4987   36.8278 H       1  <0>         0.0500
     39 H15        24.6641   17.4044   36.3070 H       1  <0>         0.0500
     40 H16        22.8224   17.5509   34.3213 H       1  <0>         0.0379
     41 H17        16.4873   20.4164   33.9480 H       1  <0>         0.1477
     42 H18        16.6594   18.8659   33.1955 H       1  <0>         0.1477
     43 H19        18.2899   21.4973   34.7470 H       1  <0>         0.4359
     44 H20        19.8821   20.8245   34.6370 H       1  <0>         0.4359
     45 H21        25.4781   19.8363   35.5806 H       1  <0>         0.1457
@<TRIPOS>BOND
     1     1    23    1
     2     2    24    1
     3     3     5   ar
     4     3    10   ar
     5     4     6   ar
     6     4    10   ar
     7     5    11   ar
     8     6    12   ar
     9     7    11   ar
    10     7    13   ar
    11     8    15    1
    12     8    19    1
    13     9    15    1
    14     9    20    1
    15    10    13   ar
    16    11    16    1
    17    12    14   ar
    18    12    23    1
    19    13    14   ar
    20    14    15    1
    21    16    17    1
    22    16    18    2
    23    19    20    1
    24    20    24    1
    25    21    24    2
    26    22    24    2
    27     1    25    1
    28     1    26    1
    29     1    27    1
    30     2    28    1
    31     2    29    1
    32     2    30    1
    33     3    31    1
    34     4    32    1
    35     5    33    1
    36     6    34    1
    37     7    35    1
    38     8    36    1
    39     8    37    1
    40     9    38    1
    41     9    39    1
    42    15    40    1
    43    17    41    1
    44    17    42    1
    45    18    43    1
    46    18    44    1
    47    19    45    1
@<TRIPOS>SUBSTRUCTURE
     1 <0>         1 TEMP              0 ****  ****    0 ROOT

