
##########                                Name:      UI3_A1001_1SQT
##########                    Molecular_Weight:             349.434
##########                DOCK_Rotatable_Bonds:                   3
##########                       Formal_Charge:                   1
##########                     HBond_Acceptors:                   8
##########                        HBond_Donors:                   5
##########                         Heavy_Atoms:                  24
##########                            HA_RMSDs:               0.718
##########                            HA_RMSDh:               0.718
##########                            HA_RMSDm:               0.712
##########                          Grid_Score:         -124.438873
##########                     Grid_vdw_energy:          -41.986691
##########                      Grid_es_energy:          -82.452179
##########           Internal_energy_repulsive:           21.196009

@<TRIPOS>MOLECULE
UI3_A1001_1SQT
 45 47 1 0 0
SMALL
USER_CHARGES


@<TRIPOS>ATOM
      1 C1         25.0377   14.7604   33.4675 C.3     1  <0>         0.0430
      2 C2         24.2143   17.9033   39.4542 C.3     1  <0>         0.0747
      3 C3         18.9626   16.7988   31.9358 C.ar    1  <0>        -0.0532
      4 C4         20.9345   15.4091   31.9400 C.ar    1  <0>        -0.0516
      5 C5         18.2644   17.8825   32.4378 C.ar    1  <0>        -0.0464
      6 C6         22.2185   15.0683   32.4442 C.ar    1  <0>        -0.0308
      7 C7         20.1617   18.4801   33.9065 C.ar    1  <0>        -0.0389
      8 C8         23.2165   19.3743   34.6214 C.3     1  <0>         0.0235
      9 C9         23.6651   17.5742   35.8717 C.3     1  <0>         0.0540
     10 C10        20.2650   16.5424   32.4192 C.ar    1  <0>        -0.0174
     11 C11        18.8560   18.7149   33.4145 C.ar    1  <0>         0.0616
     12 C12        22.8270   15.8988   33.4436 C.ar    1  <0>         0.0799
     13 C13        20.8908   17.3891   33.4066 C.ar    1  <0>        -0.0111
     14 C14        22.1894   17.0575   33.8969 C.ar    1  <0>        -0.0038
     15 C15        22.9946   17.9499   34.7777 C.3     1  <0>         0.0198
     16 C16        18.1124   19.8518   33.9302 C.cat   1  <0>         0.2605
     17 N1         16.7593   19.9136   33.7727 N.pl3   1  <0>        -0.3060
     18 N2         18.6986   20.8354   34.5589 N.pl3   1  <0>        -0.2158
     19 N3         24.1162   19.7224   35.5805 N.3     1  <0>        -0.2243
     20 N4         23.9625   18.7713   36.6766 N.pl3   1  <0>        -0.1716
     21 O1         25.5251   19.9737   38.3107 O.2     1  <0>        -0.1544
     22 O2         26.0213   17.6597   37.5852 O.2     1  <0>        -0.1544
     23 O3         24.0978   15.6564   34.0526 O.3     1  <0>        -0.3476
     24 S1         25.0577   18.6230   38.0578 S.o2    1  <0>         0.0513
     25 H1         25.9429   14.7191   34.0911 H       1  <0>         0.0529
     26 H2         24.5934   13.7564   33.3994 H       1  <0>         0.0529
     27 H3         25.3025   15.1134   32.4600 H       1  <0>         0.0529
     28 H4         24.9113   17.8198   40.3010 H       1  <0>         0.0483
     29 H5         23.3659   18.5428   39.7395 H       1  <0>         0.0483
     30 H6         23.8449   16.9031   39.1836 H       1  <0>         0.0483
     31 H7         18.5194   16.1595   31.1866 H       1  <0>         0.0624
     32 H8         20.4726   14.7917   31.1838 H       1  <0>         0.0624
     33 H9         17.2662   18.0925   32.0830 H       1  <0>         0.0626
     34 H10        22.7320   14.1914   32.0784 H       1  <0>         0.0644
     35 H11        20.5909   19.1299   34.6548 H       1  <0>         0.0632
     36 H12        23.6122   19.5971   33.6196 H       1  <0>         0.0448
     37 H13        22.2760   19.9296   34.7525 H       1  <0>         0.0448
     38 H14        23.0542   16.8735   36.4597 H       1  <0>         0.0500
     39 H15        24.6036   17.0796   35.5807 H       1  <0>         0.0500
     40 H16        22.3483   17.3701   34.1023 H       1  <0>         0.0379
     41 H17        16.2490   20.6942   34.1335 H       1  <0>         0.1477
     42 H18        16.2772   19.1781   33.2965 H       1  <0>         0.1477
     43 H19        18.1563   21.6004   34.9065 H       1  <0>         0.4359
     44 H20        19.6895   20.8235   34.6927 H       1  <0>         0.4359
     45 H21        25.0460   19.6824   35.2146 H       1  <0>         0.1457
@<TRIPOS>BOND
     1     1    23    1
     2     2    24    1
     3     3     5   ar
     4     3    10   ar
     5     4     6   ar
     6     4    10   ar
     7     5    11   ar
     8     6    12   ar
     9     7    11   ar
    10     7    13   ar
    11     8    15    1
    12     8    19    1
    13     9    15    1
    14     9    20    1
    15    10    13   ar
    16    11    16    1
    17    12    14   ar
    18    12    23    1
    19    13    14   ar
    20    14    15    1
    21    16    17    1
    22    16    18    2
    23    19    20    1
    24    20    24    1
    25    21    24    2
    26    22    24    2
    27     1    25    1
    28     1    26    1
    29     1    27    1
    30     2    28    1
    31     2    29    1
    32     2    30    1
    33     3    31    1
    34     4    32    1
    35     5    33    1
    36     6    34    1
    37     7    35    1
    38     8    36    1
    39     8    37    1
    40     9    38    1
    41     9    39    1
    42    15    40    1
    43    17    41    1
    44    17    42    1
    45    18    43    1
    46    18    44    1
    47    19    45    1
@<TRIPOS>SUBSTRUCTURE
     1 <0>         1 TEMP              0 ****  ****    0 ROOT

