
##########                                Name:      UI3_A1001_1SQT
##########                    Molecular_Weight:             349.434
##########                DOCK_Rotatable_Bonds:                   3
##########                       Formal_Charge:                   1
##########                     HBond_Acceptors:                   8
##########                        HBond_Donors:                   5
##########                         Heavy_Atoms:                  24
##########                            HA_RMSDs:               0.410
##########                            HA_RMSDh:               0.410
##########                            HA_RMSDm:               0.410
##########                          Grid_Score:         -127.883575
##########                     Grid_vdw_energy:          -46.920837
##########                      Grid_es_energy:          -80.962738
##########           Internal_energy_repulsive:           19.181259

@<TRIPOS>MOLECULE
UI3_A1001_1SQT
 45 47 1 0 0
SMALL
USER_CHARGES


@<TRIPOS>ATOM
      1 C1         25.9218   14.9579   34.3056 C.3     1  <0>         0.0430
      2 C2         24.5663   17.9483   39.7393 C.3     1  <0>         0.0747
      3 C3         19.9279   16.4586   32.0404 C.ar    1  <0>        -0.0532
      4 C4         22.0558   15.3356   32.2152 C.ar    1  <0>        -0.0516
      5 C5         19.0614   17.4485   32.4683 C.ar    1  <0>        -0.0464
      6 C6         23.3321   15.1694   32.8174 C.ar    1  <0>        -0.0308
      7 C7         20.7528   18.3033   34.0565 C.ar    1  <0>        -0.0389
      8 C8         23.6490   19.5880   34.9470 C.3     1  <0>         0.0235
      9 C9         24.1487   17.8849   36.3088 C.3     1  <0>         0.0540
     10 C10        21.2131   16.3783   32.6214 C.ar    1  <0>        -0.0174
     11 C11        19.4677   18.3616   33.4673 C.ar    1  <0>         0.0616
     12 C12        23.7537   16.0831   33.8403 C.ar    1  <0>         0.0799
     13 C13        21.6506   17.3100   33.6332 C.ar    1  <0>        -0.0111
     14 C14        22.9411   17.1548   34.2224 C.ar    1  <0>        -0.0038
     15 C15        23.5580   18.1538   35.1398 C.3     1  <0>         0.0198
     16 C16        18.5485   19.3986   33.9043 C.cat   1  <0>         0.2605
     17 N1         17.2140   19.2831   33.6489 N.pl3   1  <0>        -0.3060
     18 N2         18.9557   20.4570   34.5529 N.pl3   1  <0>        -0.2158
     19 N3         24.4068   20.0585   35.9742 N.3     1  <0>        -0.2243
     20 N4         24.2398   19.1311   37.0885 N.pl3   1  <0>        -0.1716
     21 O1         25.1188   20.5072   39.0613 O.2     1  <0>        -0.1544
     22 O2         26.4819   18.6689   38.1178 O.2     1  <0>        -0.1544
     23 O3         24.9965   16.0141   34.5439 O.3     1  <0>        -0.3476
     24 S1         25.1985   19.1418   38.5751 S.o2    1  <0>         0.0513
     25 H1         26.8061   15.0929   34.9458 H       1  <0>         0.0529
     26 H2         25.4453   13.9940   34.5373 H       1  <0>         0.0529
     27 H3         26.2287   14.9708   33.2494 H       1  <0>         0.0529
     28 H4         25.1750   17.9707   40.6552 H       1  <0>         0.0483
     29 H5         23.5230   18.1945   39.9865 H       1  <0>         0.0483
     30 H6         24.6105   16.9433   39.2943 H       1  <0>         0.0483
     31 H7         19.6268   15.7587   31.2749 H       1  <0>         0.0624
     32 H8         21.7340   14.6550   31.4409 H       1  <0>         0.0624
     33 H9         18.0735   17.5236   32.0383 H       1  <0>         0.0626
     34 H10        23.9794   14.3622   32.5078 H       1  <0>         0.0644
     35 H11        21.0387   19.0116   34.8200 H       1  <0>         0.0632
     36 H12        24.1198   19.8199   33.9803 H       1  <0>         0.0448
     37 H13        22.6486   20.0453   34.9623 H       1  <0>         0.0448
     38 H14        23.5554   17.1426   36.8628 H       1  <0>         0.0500
     39 H15        25.1571   17.4829   36.1317 H       1  <0>         0.0500
     40 H16        23.0458   17.4886   34.4291 H       1  <0>         0.0379
     41 H17        16.5827   19.9953   33.9557 H       1  <0>         0.1477
     42 H18        16.8667   18.4861   33.1547 H       1  <0>         0.1477
     43 H19        18.2957   21.1493   34.8445 H       1  <0>         0.4359
     44 H20        19.9274   20.5748   34.7576 H       1  <0>         0.4359
     45 H21        25.3681   20.1051   35.7029 H       1  <0>         0.1457
@<TRIPOS>BOND
     1     1    23    1
     2     2    24    1
     3     3     5   ar
     4     3    10   ar
     5     4     6   ar
     6     4    10   ar
     7     5    11   ar
     8     6    12   ar
     9     7    11   ar
    10     7    13   ar
    11     8    15    1
    12     8    19    1
    13     9    15    1
    14     9    20    1
    15    10    13   ar
    16    11    16    1
    17    12    14   ar
    18    12    23    1
    19    13    14   ar
    20    14    15    1
    21    16    17    1
    22    16    18    2
    23    19    20    1
    24    20    24    1
    25    21    24    2
    26    22    24    2
    27     1    25    1
    28     1    26    1
    29     1    27    1
    30     2    28    1
    31     2    29    1
    32     2    30    1
    33     3    31    1
    34     4    32    1
    35     5    33    1
    36     6    34    1
    37     7    35    1
    38     8    36    1
    39     8    37    1
    40     9    38    1
    41     9    39    1
    42    15    40    1
    43    17    41    1
    44    17    42    1
    45    18    43    1
    46    18    44    1
    47    19    45    1
@<TRIPOS>SUBSTRUCTURE
     1 <0>         1 TEMP              0 ****  ****    0 ROOT

