
##########                                Name:      UI3_A1001_1SQT
##########                    Molecular_Weight:             349.434
##########                DOCK_Rotatable_Bonds:                   3
##########                       Formal_Charge:                   1
##########                     HBond_Acceptors:                   8
##########                        HBond_Donors:                   5
##########                         Heavy_Atoms:                  24
##########                            HA_RMSDs:               1.111
##########                            HA_RMSDh:               1.111
##########                            HA_RMSDm:               1.059
##########                          Grid_Score:         -124.001801
##########                     Grid_vdw_energy:          -43.725735
##########                      Grid_es_energy:          -80.276062
##########           Internal_energy_repulsive:            9.952694

@<TRIPOS>MOLECULE
UI3_A1001_1SQT
 45 47 1 0 0
SMALL
USER_CHARGES


@<TRIPOS>ATOM
      1 C1         26.1274   14.5011   33.7214 C.3     1  <0>         0.0430
      2 C2         24.1000   17.9595   39.2524 C.3     1  <0>         0.0747
      3 C3         20.1245   16.2318   31.7482 C.ar    1  <0>        -0.0532
      4 C4         22.2917   15.1927   31.5408 C.ar    1  <0>        -0.0516
      5 C5         19.2879   17.1328   32.3825 C.ar    1  <0>        -0.0464
      6 C6         23.6381   15.0224   31.9618 C.ar    1  <0>        -0.0308
      7 C7         21.1379   17.8940   33.8358 C.ar    1  <0>        -0.0389
      8 C8         24.5934   19.0747   34.2520 C.3     1  <0>         0.0235
      9 C9         24.3207   17.5191   35.8365 C.3     1  <0>         0.0540
     10 C10        21.4744   16.1494   32.1564 C.ar    1  <0>        -0.0174
     11 C11        19.7878   17.9554   33.4171 C.ar    1  <0>         0.0616
     12 C12        24.1561   15.8438   33.0181 C.ar    1  <0>         0.0799
     13 C13        22.0061   16.9906   33.2019 C.ar    1  <0>        -0.0111
     14 C14        23.3647   16.8332   33.6095 C.ar    1  <0>        -0.0038
     15 C15        24.0604   17.7589   34.5472 C.3     1  <0>         0.0198
     16 C16        18.8987   18.8999   34.0718 C.cat   1  <0>         0.2605
     17 N1         17.5469   18.7520   33.9698 N.pl3   1  <0>        -0.3060
     18 N2         19.3507   19.9030   34.7762 N.pl3   1  <0>        -0.2158
     19 N3         25.2493   19.4755   35.3744 N.3     1  <0>        -0.2243
     20 N4         24.6188   18.7983   36.5030 N.pl3   1  <0>        -0.1716
     21 O1         25.4600   20.1706   38.4948 O.2     1  <0>        -0.1544
     22 O2         26.4092   17.9315   38.0339 O.2     1  <0>        -0.1544
     23 O3         25.4791   15.7581   33.5537 O.3     1  <0>        -0.3476
     24 S1         25.2461   18.7753   38.1569 S.o2    1  <0>         0.0513
     25 H1         27.1304   14.6588   34.1447 H       1  <0>         0.0529
     26 H2         25.5364   13.8721   34.4033 H       1  <0>         0.0529
     27 H3         26.2160   14.0014   32.7455 H       1  <0>         0.0529
     28 H4         24.5079   17.9558   40.2740 H       1  <0>         0.0483
     29 H5         23.1394   18.4956   39.2433 H       1  <0>         0.0483
     30 H6         23.9453   16.9238   38.9159 H       1  <0>         0.0483
     31 H7         19.7517   15.6017   30.9541 H       1  <0>         0.0624
     32 H8         21.8967   14.5818   30.7426 H       1  <0>         0.0624
     33 H9         18.2520   17.2077   32.0865 H       1  <0>         0.0626
     34 H10        24.2664   14.2810   31.4906 H       1  <0>         0.0644
     35 H11        21.4952   18.5320   34.6306 H       1  <0>         0.0632
     36 H12        25.2822   19.0305   33.3956 H       1  <0>         0.0448
     37 H13        23.7817   19.7754   34.0065 H       1  <0>         0.0448
     38 H14        23.4470   17.0480   36.3106 H       1  <0>         0.0500
     39 H15        25.1859   16.8452   35.9218 H       1  <0>         0.0500
     40 H16        23.5204   17.1545   33.8036 H       1  <0>         0.0379
     41 H17        16.9371   19.4000   34.4260 H       1  <0>         0.1477
     42 H18        17.1654   17.9954   33.4386 H       1  <0>         0.1477
     43 H19        18.7112   20.5315   35.2188 H       1  <0>         0.4359
     44 H20        20.3363   20.0422   34.8727 H       1  <0>         0.4359
     45 H21        26.2165   19.2279   35.3179 H       1  <0>         0.1457
@<TRIPOS>BOND
     1     1    23    1
     2     2    24    1
     3     3     5   ar
     4     3    10   ar
     5     4     6   ar
     6     4    10   ar
     7     5    11   ar
     8     6    12   ar
     9     7    11   ar
    10     7    13   ar
    11     8    15    1
    12     8    19    1
    13     9    15    1
    14     9    20    1
    15    10    13   ar
    16    11    16    1
    17    12    14   ar
    18    12    23    1
    19    13    14   ar
    20    14    15    1
    21    16    17    1
    22    16    18    2
    23    19    20    1
    24    20    24    1
    25    21    24    2
    26    22    24    2
    27     1    25    1
    28     1    26    1
    29     1    27    1
    30     2    28    1
    31     2    29    1
    32     2    30    1
    33     3    31    1
    34     4    32    1
    35     5    33    1
    36     6    34    1
    37     7    35    1
    38     8    36    1
    39     8    37    1
    40     9    38    1
    41     9    39    1
    42    15    40    1
    43    17    41    1
    44    17    42    1
    45    18    43    1
    46    18    44    1
    47    19    45    1
@<TRIPOS>SUBSTRUCTURE
     1 <0>         1 TEMP              0 ****  ****    0 ROOT

