
##########                                Name:        ZK1_263_3KGC
##########                    Molecular_Weight:             407.243
##########                DOCK_Rotatable_Bonds:                   4
##########                       Formal_Charge:             -1.9999
##########                     HBond_Acceptors:                  12
##########                        HBond_Donors:                   1
##########                         Heavy_Atoms:                  27
##########                            HA_RMSDs:               8.099
##########                            HA_RMSDh:               7.430
##########                            HA_RMSDm:               6.610
##########                          Grid_Score:           58.777870
##########                     Grid_vdw_energy:          -31.306097
##########                      Grid_es_energy:           90.083969
##########           Internal_energy_repulsive:           14.906695

@<TRIPOS>MOLECULE
ZK1_263_3KGC
 40 42 1 0 0
SMALL
USER_CHARGES


@<TRIPOS>ATOM
      1 C1          7.0339   29.8736   -0.6369 C.ar    1  <0>        -0.0252
      2 C2          6.3669   27.3785   -1.6634 C.ar    1  <0>        -0.0168
      3 C3          7.1714   27.9700   -4.7709 C.3     1  <0>         0.0357
      4 C4          8.8329   26.5539   -3.4012 C.3     1  <0>         0.0357
      5 C5          8.0684   27.7027   -5.9864 C.3     1  <0>         0.0634
      6 C6          9.5252   26.2767   -4.7439 C.3     1  <0>         0.0634
      7 C7          4.4469   25.6670   -0.3601 C.3     1  <0>         0.0479
      8 C8          7.6376   29.4342   -1.8246 C.ar    1  <0>         0.0776
      9 C9          6.1056   29.0682    0.0266 C.ar    1  <0>         0.0561
     10 C10         5.7763   27.8151   -0.4750 C.ar    1  <0>         0.0601
     11 C11         7.2901   28.1725   -2.3308 C.ar    1  <0>         0.0434
     12 C12         4.5815   28.7280    1.8794 C.2     1  <0>         0.3037
     13 C13         4.2373   27.4649    1.3810 C.2     1  <0>         0.3064
     14 C14         8.6171   30.3622   -2.5532 C.3     1  <0>         0.4192
     15 N1          5.4992   29.5160    1.2066 N.am    1  <0>        -0.2761
     16 N2          4.8318   26.9971    0.1963 N.am    1  <0>        -0.2569
     17 N3          7.8191   27.6212   -3.5010 N.pl3   1  <0>        -0.3250
     18 O1          3.4460   25.4250   -3.0090 O.3     1  <0>        -0.8117
     19 O2          1.9768   24.6786   -1.0330 O.3     1  <0>        -0.8117
     20 O3          4.0812   29.1452    2.9231 O.2     1  <0>        -0.2648
     21 O4          3.4377   26.7489    1.9886 O.2     1  <0>        -0.2646
     22 O5          2.4235   27.1758   -1.4757 O.2     1  <0>        -0.3519
     23 O6          8.5818   26.3625   -5.8317 O.3     1  <0>        -0.3767
     24 F1          7.9747   30.9026   -3.5959 F       1  <0>        -0.1658
     25 F2          8.9725   31.3250   -1.7134 F       1  <0>        -0.1658
     26 F3          9.6734   29.7240   -2.9951 F       1  <0>        -0.1658
     27 P1          2.9736   25.8179   -1.5071 P.3     1  <0>        -0.0482
     28 H1          7.2890   30.8420   -0.2326 H       1  <0>         0.0643
     29 H2          6.1026   26.4124   -2.0674 H       1  <0>         0.0655
     30 H3          6.9234   29.0415   -4.7514 H       1  <0>         0.0486
     31 H4          6.2586   27.3647   -4.8731 H       1  <0>         0.0486
     32 H5          8.3364   25.6309   -3.0673 H       1  <0>         0.0486
     33 H6          9.5961   26.8643   -2.6723 H       1  <0>         0.0486
     34 H7          7.4891   27.7874   -6.9177 H       1  <0>         0.0575
     35 H8          8.8938   28.4288   -6.0223 H       1  <0>         0.0575
     36 H9         10.3203   27.0211   -4.8984 H       1  <0>         0.0575
     37 H10         9.9583   25.2658   -4.7228 H       1  <0>         0.0575
     38 H11         5.2975   25.2559   -0.9236 H       1  <0>         0.0525
     39 H12         4.1855   24.9947    0.4703 H       1  <0>         0.0525
     40 H13         5.7326   30.4185    1.5687 H       1  <0>         0.1553
@<TRIPOS>BOND
     1     1     8   ar
     2     1     9   ar
     3     2    10   ar
     4     2    11   ar
     5     3     5    1
     6     3    17    1
     7     4     6    1
     8     4    17    1
     9     5    23    1
    10     6    23    1
    11     7    16    1
    12     7    27    1
    13     8    11   ar
    14     8    14    1
    15     9    10   ar
    16     9    15    1
    17    10    16    1
    18    11    17    1
    19    12    13    1
    20    12    15   am
    21    12    20    2
    22    13    16   am
    23    13    21    2
    24    14    24    1
    25    14    25    1
    26    14    26    1
    27    18    27    1
    28    19    27    1
    29    22    27    2
    30     1    28    1
    31     2    29    1
    32     3    30    1
    33     3    31    1
    34     4    32    1
    35     4    33    1
    36     5    34    1
    37     5    35    1
    38     6    36    1
    39     6    37    1
    40     7    38    1
    41     7    39    1
    42    15    40    1
@<TRIPOS>SUBSTRUCTURE
     1 <0>         1 TEMP              0 ****  ****    0 ROOT

