
##########                                Name:        ZK1_263_3KGC
##########                    Molecular_Weight:             407.243
##########                DOCK_Rotatable_Bonds:                   4
##########                       Formal_Charge:             -1.9999
##########                     HBond_Acceptors:                  12
##########                        HBond_Donors:                   1
##########                         Heavy_Atoms:                  27
##########                            HA_RMSDs:              14.980
##########                            HA_RMSDh:              14.686
##########                            HA_RMSDm:              13.816
##########                          Grid_Score:           45.548714
##########                     Grid_vdw_energy:           -8.862585
##########                      Grid_es_energy:           54.411301
##########           Internal_energy_repulsive:           17.061043

@<TRIPOS>MOLECULE
ZK1_263_3KGC
 40 42 1 0 0
SMALL
USER_CHARGES


@<TRIPOS>ATOM
      1 C1         -2.0807   26.5135    4.1202 C.ar    1  <0>        -0.0252
      2 C2         -2.5614   24.0933    2.8414 C.ar    1  <0>        -0.0168
      3 C3         -2.9113   25.1700   -0.1759 C.3     1  <0>         0.0357
      4 C4         -0.5863   24.1990    0.3659 C.3     1  <0>         0.0357
      5 C5         -2.4292   25.3051   -1.6260 C.3     1  <0>         0.0634
      6 C6         -0.3296   24.2751   -1.1465 C.3     1  <0>         0.0634
      7 C7         -3.6406   21.8217    4.2517 C.3     1  <0>         0.0479
      8 C8         -1.8012   26.3912    2.7509 C.ar    1  <0>         0.0776
      9 C9         -2.5962   25.4320    4.8380 C.ar    1  <0>         0.0561
     10 C10        -2.8282   24.2160    4.2072 C.ar    1  <0>         0.0601
     11 C11        -2.0499   25.1632    2.1191 C.ar    1  <0>         0.0434
     12 C12        -3.3882   24.4993    6.9294 C.2     1  <0>         0.3037
     13 C13        -3.6312   23.2696    6.3039 C.2     1  <0>         0.3064
     14 C14        -1.2802   27.6116    1.9822 C.3     1  <0>         0.4192
     15 N1         -2.8823   25.5628    6.2024 N.am    1  <0>        -0.2761
     16 N2         -3.3540   23.1174    4.9342 N.am    1  <0>        -0.2569
     17 N3         -1.8141   24.9133    0.7645 N.pl3   1  <0>        -0.3250
     18 O1         -5.7311   23.4222    3.1818 O.3     1  <0>        -0.8117
     19 O2         -5.0113   21.2899    1.9345 O.3     1  <0>        -0.8117
     20 O3         -3.6113   24.6437    8.1307 O.2     1  <0>        -0.2648
     21 O4         -4.0601   22.3117    6.9516 O.2     1  <0>        -0.2646
     22 O5         -6.3142   21.1458    4.1512 O.2     1  <0>        -0.3519
     23 O6         -1.5677   24.1751   -1.8798 O.3     1  <0>        -0.3767
     24 F1         -2.0432   28.6615    2.3099 F       1  <0>        -0.1658
     25 F2         -0.0333   27.8403    2.3713 F       1  <0>        -0.1658
     26 F3         -1.3333   27.4424    0.6834 F       1  <0>        -0.1658
     27 P1         -5.2991   21.8710    3.3823 P.3     1  <0>        -0.0482
     28 H1         -1.8958   27.4512    4.6232 H       1  <0>         0.0643
     29 H2         -2.7553   23.1557    2.3417 H       1  <0>         0.0655
     30 H3         -3.4053   26.1089    0.1148 H       1  <0>         0.0486
     31 H4         -3.6187   24.3293   -0.1220 H       1  <0>         0.0486
     32 H5         -0.6900   23.1413    0.6496 H       1  <0>         0.0486
     33 H6          0.2679   24.6545    0.8884 H       1  <0>         0.0486
     34 H7         -3.2846   25.2995   -2.3176 H       1  <0>         0.0575
     35 H8         -1.8778   26.2472   -1.7616 H       1  <0>         0.0575
     36 H9          0.1505   25.2365   -1.3814 H       1  <0>         0.0575
     37 H10         0.3303   23.4457   -1.4410 H       1  <0>         0.0575
     38 H11        -2.8534   21.6278    3.5083 H       1  <0>         0.0525
     39 H12        -3.6549   21.0181    5.0028 H       1  <0>         0.0525
     40 H13        -2.7185   26.4377    6.6584 H       1  <0>         0.1553
@<TRIPOS>BOND
     1     1     8   ar
     2     1     9   ar
     3     2    10   ar
     4     2    11   ar
     5     3     5    1
     6     3    17    1
     7     4     6    1
     8     4    17    1
     9     5    23    1
    10     6    23    1
    11     7    16    1
    12     7    27    1
    13     8    11   ar
    14     8    14    1
    15     9    10   ar
    16     9    15    1
    17    10    16    1
    18    11    17    1
    19    12    13    1
    20    12    15   am
    21    12    20    2
    22    13    16   am
    23    13    21    2
    24    14    24    1
    25    14    25    1
    26    14    26    1
    27    18    27    1
    28    19    27    1
    29    22    27    2
    30     1    28    1
    31     2    29    1
    32     3    30    1
    33     3    31    1
    34     4    32    1
    35     4    33    1
    36     5    34    1
    37     5    35    1
    38     6    36    1
    39     6    37    1
    40     7    38    1
    41     7    39    1
    42    15    40    1
@<TRIPOS>SUBSTRUCTURE
     1 <0>         1 TEMP              0 ****  ****    0 ROOT

