
##########                                Name:        ZK1_263_3KGC
##########                    Molecular_Weight:             407.243
##########                DOCK_Rotatable_Bonds:                   4
##########                       Formal_Charge:             -1.9999
##########                     HBond_Acceptors:                  12
##########                        HBond_Donors:                   1
##########                         Heavy_Atoms:                  27
##########                            HA_RMSDs:              14.579
##########                            HA_RMSDh:              14.253
##########                            HA_RMSDm:              13.622
##########                          Grid_Score:           43.308487
##########                     Grid_vdw_energy:           -9.290367
##########                      Grid_es_energy:           52.598854
##########           Internal_energy_repulsive:           15.473645

@<TRIPOS>MOLECULE
ZK1_263_3KGC
 40 42 1 0 0
SMALL
USER_CHARGES


@<TRIPOS>ATOM
      1 C1         -1.6873   25.6136   -1.1006 C.ar    1  <0>        -0.0252
      2 C2         -1.4870   22.9946   -2.0088 C.ar    1  <0>        -0.0168
      3 C3         -1.0778   23.4814   -5.1295 C.3     1  <0>         0.0357
      4 C4          1.1348   23.1664   -3.8461 C.3     1  <0>         0.0357
      5 C5         -0.2382   23.5011   -6.4133 C.3     1  <0>         0.0634
      6 C6          1.7904   23.0679   -5.2315 C.3     1  <0>         0.0634
      7 C7         -2.6609   20.7943   -0.5615 C.3     1  <0>         0.0479
      8 C8         -1.0060   25.3508   -2.2984 C.ar    1  <0>         0.0776
      9 C9         -2.2614   24.5721   -0.3682 C.ar    1  <0>         0.0561
     10 C10        -2.1551   23.2594   -0.8108 C.ar    1  <0>         0.0601
     11 C11        -0.9140   24.0235   -2.7444 C.ar    1  <0>         0.0434
     12 C12        -3.5182   23.8204    1.5623 C.2     1  <0>         0.3037
     13 C13        -3.4223   22.4934    1.1240 C.2     1  <0>         0.3064
     14 C14        -0.4280   26.5218   -3.1023 C.3     1  <0>         0.4192
     15 N1         -2.9484   24.8416    0.8218 N.am    1  <0>        -0.2761
     16 N2         -2.7397   22.2009   -0.0695 N.am    1  <0>        -0.2569
     17 N3         -0.2638   23.6310   -3.9175 N.pl3   1  <0>        -0.3250
     18 O1         -5.2062   21.5996   -1.5360 O.3     1  <0>        -0.8117
     19 O2         -3.6391   20.2505   -3.0672 O.3     1  <0>        -0.8117
     20 O3         -4.0992   24.0909    2.6125 O.2     1  <0>        -0.2648
     21 O4         -3.9080   21.5771    1.7916 O.2     1  <0>        -0.2646
     22 O5         -4.8076   19.1342   -1.0621 O.2     1  <0>        -0.3519
     23 O6          0.8495   22.5748   -6.2073 O.3     1  <0>        -0.3767
     24 F1         -1.2064   26.7092   -4.1751 F       1  <0>        -0.1658
     25 F2         -0.4702   27.6048   -2.3382 F       1  <0>        -0.1658
     26 F3          0.7974   26.2917   -3.5071 F       1  <0>        -0.1658
     27 P1         -4.1716   20.3502   -1.5762 P.3     1  <0>        -0.0482
     28 H1         -1.7684   26.6291   -0.7420 H       1  <0>         0.0643
     29 H2         -1.4153   21.9782   -2.3668 H       1  <0>         0.0655
     30 H3         -1.7952   24.3143   -5.1709 H       1  <0>         0.0486
     31 H4         -1.6074   22.5188   -5.0755 H       1  <0>         0.0486
     32 H5          1.1482   22.1692   -3.3818 H       1  <0>         0.0486
     33 H6          1.7093   23.8806   -3.2379 H       1  <0>         0.0486
     34 H7         -0.8475   23.1931   -7.2758 H       1  <0>         0.0575
     35 H8          0.1492   24.5128   -6.6038 H       1  <0>         0.0575
     36 H9          2.1351   24.0667   -5.5376 H       1  <0>         0.0575
     37 H10         2.6453   22.3779   -5.1762 H       1  <0>         0.0575
     38 H11        -1.7643   20.6854   -1.1895 H       1  <0>         0.0525
     39 H12        -2.5994   20.1166    0.3027 H       1  <0>         0.0525
     40 H13        -3.0285   25.7857    1.1415 H       1  <0>         0.1553
@<TRIPOS>BOND
     1     1     8   ar
     2     1     9   ar
     3     2    10   ar
     4     2    11   ar
     5     3     5    1
     6     3    17    1
     7     4     6    1
     8     4    17    1
     9     5    23    1
    10     6    23    1
    11     7    16    1
    12     7    27    1
    13     8    11   ar
    14     8    14    1
    15     9    10   ar
    16     9    15    1
    17    10    16    1
    18    11    17    1
    19    12    13    1
    20    12    15   am
    21    12    20    2
    22    13    16   am
    23    13    21    2
    24    14    24    1
    25    14    25    1
    26    14    26    1
    27    18    27    1
    28    19    27    1
    29    22    27    2
    30     1    28    1
    31     2    29    1
    32     3    30    1
    33     3    31    1
    34     4    32    1
    35     4    33    1
    36     5    34    1
    37     5    35    1
    38     6    36    1
    39     6    37    1
    40     7    38    1
    41     7    39    1
    42    15    40    1
@<TRIPOS>SUBSTRUCTURE
     1 <0>         1 TEMP              0 ****  ****    0 ROOT

