
##########                                Name:        ZK1_263_3KGC
##########                    Molecular_Weight:             407.243
##########                DOCK_Rotatable_Bonds:                   4
##########                       Formal_Charge:             -1.9999
##########                     HBond_Acceptors:                  12
##########                        HBond_Donors:                   1
##########                         Heavy_Atoms:                  27
##########                            HA_RMSDs:              13.190
##########                            HA_RMSDh:              12.862
##########                            HA_RMSDm:              11.559
##########                          Grid_Score:           45.289993
##########                     Grid_vdw_energy:          -19.327776
##########                      Grid_es_energy:           64.617767
##########           Internal_energy_repulsive:           15.421393

@<TRIPOS>MOLECULE
ZK1_263_3KGC
 40 42 1 0 0
SMALL
USER_CHARGES


@<TRIPOS>ATOM
      1 C1          6.9892   22.5018   -2.0980 C.ar    1  <0>        -0.0252
      2 C2          7.4495   21.1171   -4.4632 C.ar    1  <0>        -0.0168
      3 C3          6.9293   23.1137   -6.7243 C.3     1  <0>         0.0357
      4 C4          9.3465   23.4442   -5.8938 C.3     1  <0>         0.0357
      5 C5          7.2453   24.1495   -7.8108 C.3     1  <0>         0.0634
      6 C6          9.5234   24.3459   -7.1245 C.3     1  <0>         0.0634
      7 C7          7.1961   18.2488   -4.6145 C.3     1  <0>         0.0479
      8 C8          7.3457   23.2129   -3.2536 C.ar    1  <0>         0.0776
      9 C9          6.8652   21.1111   -2.1312 C.ar    1  <0>         0.0561
     10 C10         7.1050   20.4118   -3.3076 C.ar    1  <0>         0.0601
     11 C11         7.5741   22.4999   -4.4403 C.ar    1  <0>         0.0434
     12 C12         6.3780   19.0290   -0.9916 C.2     1  <0>         0.3037
     13 C13         6.6121   18.3129   -2.1726 C.2     1  <0>         0.3064
     14 C14         7.4273   24.7431   -3.1946 C.3     1  <0>         0.4192
     15 N1          6.4998   20.4076   -0.9770 N.am    1  <0>        -0.2761
     16 N2          6.9770   18.9996   -3.3437 N.am    1  <0>        -0.2569
     17 N3          7.9345   23.0890   -5.6552 N.pl3   1  <0>        -0.3250
     18 O1          5.9526   17.4172   -7.0308 O.3     1  <0>        -0.8117
     19 O2          4.6329   17.2914   -4.8256 O.3     1  <0>        -0.8117
     20 O3          6.0728   18.4411    0.0451 O.2     1  <0>        -0.2648
     21 O4          6.5278   17.0825   -2.1858 O.2     1  <0>        -0.2646
     22 O5          5.1528   19.5616   -5.9247 O.2     1  <0>        -0.3519
     23 O6          8.6258   23.9485   -8.1814 O.3     1  <0>        -0.3767
     24 F1          6.8383   25.2298   -4.2937 F       1  <0>        -0.1658
     25 F2          6.7573   25.1490   -2.1246 F       1  <0>        -0.1658
     26 F3          8.6643   25.1751   -3.1542 F       1  <0>        -0.1658
     27 P1          5.6348   18.2055   -5.6486 P.3     1  <0>        -0.0482
     28 H1          6.8093   23.0340   -1.1755 H       1  <0>         0.0643
     29 H2          7.6209   20.5808   -5.3849 H       1  <0>         0.0655
     30 H3          5.9549   23.3636   -6.2790 H       1  <0>         0.0486
     31 H4          6.8955   22.1187   -7.1923 H       1  <0>         0.0486
     32 H5          9.9172   22.5178   -6.0548 H       1  <0>         0.0486
     33 H6          9.7256   23.9800   -5.0110 H       1  <0>         0.0486
     34 H7          6.5886   24.0059   -8.6815 H       1  <0>         0.0575
     35 H8          7.0951   25.1688   -7.4255 H       1  <0>         0.0575
     36 H9          9.3067   25.3866   -6.8415 H       1  <0>         0.0575
     37 H10        10.5599   24.2641   -7.4837 H       1  <0>         0.0575
     38 H11         7.9917   18.7449   -5.1898 H       1  <0>         0.0525
     39 H12         7.4934   17.2176   -4.3733 H       1  <0>         0.0525
     40 H13         6.3243   20.9087   -0.1295 H       1  <0>         0.1553
@<TRIPOS>BOND
     1     1     8   ar
     2     1     9   ar
     3     2    10   ar
     4     2    11   ar
     5     3     5    1
     6     3    17    1
     7     4     6    1
     8     4    17    1
     9     5    23    1
    10     6    23    1
    11     7    16    1
    12     7    27    1
    13     8    11   ar
    14     8    14    1
    15     9    10   ar
    16     9    15    1
    17    10    16    1
    18    11    17    1
    19    12    13    1
    20    12    15   am
    21    12    20    2
    22    13    16   am
    23    13    21    2
    24    14    24    1
    25    14    25    1
    26    14    26    1
    27    18    27    1
    28    19    27    1
    29    22    27    2
    30     1    28    1
    31     2    29    1
    32     3    30    1
    33     3    31    1
    34     4    32    1
    35     4    33    1
    36     5    34    1
    37     5    35    1
    38     6    36    1
    39     6    37    1
    40     7    38    1
    41     7    39    1
    42    15    40    1
@<TRIPOS>SUBSTRUCTURE
     1 <0>         1 TEMP              0 ****  ****    0 ROOT

