
##########                                Name:        ZK1_263_3KGC
##########                    Molecular_Weight:             407.243
##########                DOCK_Rotatable_Bonds:                   4
##########                       Formal_Charge:             -1.9999
##########                     HBond_Acceptors:                  12
##########                        HBond_Donors:                   1
##########                         Heavy_Atoms:                  27
##########                            HA_RMSDs:               9.974
##########                            HA_RMSDh:               9.497
##########                            HA_RMSDm:               8.796
##########                          Grid_Score:           53.833252
##########                     Grid_vdw_energy:          -21.490221
##########                      Grid_es_energy:           75.323471
##########           Internal_energy_repulsive:           13.765341

@<TRIPOS>MOLECULE
ZK1_263_3KGC
 40 42 1 0 0
SMALL
USER_CHARGES


@<TRIPOS>ATOM
      1 C1          4.2341   27.7668    0.1855 C.ar    1  <0>        -0.0252
      2 C2          3.6227   25.4364   -1.1999 C.ar    1  <0>        -0.0168
      3 C3          5.2713   26.0350   -3.9160 C.3     1  <0>         0.0357
      4 C4          6.4358   24.4538   -2.2468 C.3     1  <0>         0.0357
      5 C5          6.4307   25.7447   -4.8777 C.3     1  <0>         0.0634
      6 C6          7.4297   24.1732   -3.3837 C.3     1  <0>         0.0634
      7 C7          1.2443   23.9109   -0.6253 C.3     1  <0>         0.0479
      8 C8          5.0972   27.3214   -0.8269 C.ar    1  <0>         0.0776
      9 C9          3.0771   27.0493    0.4972 C.ar    1  <0>         0.0561
     10 C10         2.7715   25.8774   -0.1837 C.ar    1  <0>         0.0601
     11 C11         4.7746   26.1435   -1.5179 C.ar    1  <0>         0.0434
     12 C12         1.0668   26.8017    1.8273 C.2     1  <0>         0.3037
     13 C13         0.7451   25.6216    1.1445 C.2     1  <0>         0.3064
     14 C14         6.3343   28.1575   -1.1762 C.3     1  <0>         0.4192
     15 N1          2.2144   27.5039    1.5022 N.am    1  <0>        -0.2761
     16 N2          1.5956   25.1490    0.1300 N.am    1  <0>        -0.2569
     17 N3          5.5498   25.5957   -2.5436 N.pl3   1  <0>        -0.3250
     18 O1          1.2675   23.9716   -3.4665 O.3     1  <0>        -0.8117
     19 O2         -0.8886   23.2923   -2.2376 O.3     1  <0>        -0.8117
     20 O3          0.3405   27.2200    2.7279 O.2     1  <0>        -0.2648
     21 O4         -0.2639   24.9794    1.4457 O.2     1  <0>        -0.2646
     22 O5         -0.0742   25.7354   -2.2215 O.2     1  <0>        -0.3519
     23 O6          6.8029   24.3658   -4.6685 O.3     1  <0>        -0.3767
     24 F1          7.3959   27.3421   -1.1772 F       1  <0>        -0.1658
     25 F2          6.1640   28.6534   -2.3944 F       1  <0>        -0.1658
     26 F3          6.5449   29.1209   -0.3126 F       1  <0>        -0.1658
     27 P1          0.3166   24.3232   -2.1996 P.3     1  <0>        -0.0482
     28 H1          4.4661   28.6715    0.7278 H       1  <0>         0.0643
     29 H2          3.3820   24.5352   -1.7443 H       1  <0>         0.0655
     30 H3          5.0938   27.1206   -3.9037 H       1  <0>         0.0486
     31 H4          4.3790   25.5025   -4.2769 H       1  <0>         0.0486
     32 H5          5.8139   23.5588   -2.0979 H       1  <0>         0.0486
     33 H6          7.0051   24.6818   -1.3337 H       1  <0>         0.0486
     34 H7          6.1152   25.9040   -5.9194 H       1  <0>         0.0575
     35 H8          7.2815   26.4089   -4.6658 H       1  <0>         0.0575
     36 H9          8.2827   24.8619   -3.2932 H       1  <0>         0.0575
     37 H10         7.7790   23.1330   -3.3068 H       1  <0>         0.0575
     38 H11         2.1699   23.3767   -0.8858 H       1  <0>         0.0525
     39 H12         0.6082   23.2748    0.0078 H       1  <0>         0.0525
     40 H13         2.4307   28.3483    1.9923 H       1  <0>         0.1553
@<TRIPOS>BOND
     1     1     8   ar
     2     1     9   ar
     3     2    10   ar
     4     2    11   ar
     5     3     5    1
     6     3    17    1
     7     4     6    1
     8     4    17    1
     9     5    23    1
    10     6    23    1
    11     7    16    1
    12     7    27    1
    13     8    11   ar
    14     8    14    1
    15     9    10   ar
    16     9    15    1
    17    10    16    1
    18    11    17    1
    19    12    13    1
    20    12    15   am
    21    12    20    2
    22    13    16   am
    23    13    21    2
    24    14    24    1
    25    14    25    1
    26    14    26    1
    27    18    27    1
    28    19    27    1
    29    22    27    2
    30     1    28    1
    31     2    29    1
    32     3    30    1
    33     3    31    1
    34     4    32    1
    35     4    33    1
    36     5    34    1
    37     5    35    1
    38     6    36    1
    39     6    37    1
    40     7    38    1
    41     7    39    1
    42    15    40    1
@<TRIPOS>SUBSTRUCTURE
     1 <0>         1 TEMP              0 ****  ****    0 ROOT

