
##########                                Name:        ZK1_263_3KGC
##########                    Molecular_Weight:             407.243
##########                DOCK_Rotatable_Bonds:                   4
##########                       Formal_Charge:             -1.9999
##########                     HBond_Acceptors:                  12
##########                        HBond_Donors:                   1
##########                         Heavy_Atoms:                  27
##########                            HA_RMSDs:               8.088
##########                            HA_RMSDh:               7.976
##########                            HA_RMSDm:               7.218
##########                          Grid_Score:           58.091885
##########                     Grid_vdw_energy:          -22.274250
##########                      Grid_es_energy:           80.366135
##########           Internal_energy_repulsive:           16.656570

@<TRIPOS>MOLECULE
ZK1_263_3KGC
 40 42 1 0 0
SMALL
USER_CHARGES


@<TRIPOS>ATOM
      1 C1          5.5255   27.3268   -0.4652 C.ar    1  <0>        -0.0252
      2 C2          3.5689   26.5387   -2.2747 C.ar    1  <0>        -0.0168
      3 C3          1.1642   26.1148   -0.0817 C.3     1  <0>         0.0357
      4 C4          1.0548   28.2231   -1.5600 C.3     1  <0>         0.0357
      5 C5         -0.2012   26.5335    0.4785 C.3     1  <0>         0.0634
      6 C6         -0.3611   28.4061   -0.9937 C.3     1  <0>         0.0634
      7 C7          4.2433   25.3814   -4.8281 C.3     1  <0>         0.0479
      8 C8          4.1729   27.4857   -0.1288 C.ar    1  <0>         0.0776
      9 C9          5.8902   26.7777   -1.6965 C.ar    1  <0>         0.0561
     10 C10         4.9171   26.3922   -2.6103 C.ar    1  <0>         0.0601
     11 C11         3.1966   27.0825   -1.0525 C.ar    1  <0>         0.0434
     12 C12         7.6201   26.0754   -3.2410 C.2     1  <0>         0.3037
     13 C13         6.6485   25.6782   -4.1687 C.2     1  <0>         0.3064
     14 C14         3.8063   28.0481    1.2499 C.3     1  <0>         0.4192
     15 N1          7.2418   26.6127   -2.0228 N.am    1  <0>        -0.2761
     16 N2          5.2857   25.8321   -3.8601 N.am    1  <0>        -0.2569
     17 N3          1.8196   27.1880   -0.8385 N.pl3   1  <0>        -0.3250
     18 O1          1.8064   23.9362   -4.6053 O.3     1  <0>        -0.8117
     19 O2          3.9885   22.6614   -5.0887 O.3     1  <0>        -0.8117
     20 O3          8.8168   25.9612   -3.5024 O.2     1  <0>        -0.2648
     21 O4          6.9798   25.2204   -5.2649 O.2     1  <0>        -0.2646
     22 O5          3.5444   23.6844   -2.7674 O.2     1  <0>        -0.3519
     23 O6         -0.9272   27.1347   -0.6147 O.3     1  <0>        -0.3767
     24 F1          3.4221   27.0253    2.0233 F       1  <0>        -0.1658
     25 F2          4.8930   28.6033    1.7691 F       1  <0>        -0.1658
     26 F3          2.8288   28.9194    1.1890 F       1  <0>        -0.1658
     27 P1          3.3784   23.8369   -4.2154 P.3     1  <0>        -0.0482
     28 H1          6.2908   27.6313    0.2335 H       1  <0>         0.0643
     29 H2          2.8077   26.2255   -2.9738 H       1  <0>         0.0655
     30 H3          1.8147   25.8367    0.7606 H       1  <0>         0.0486
     31 H4          1.0156   25.2567   -0.7538 H       1  <0>         0.0486
     32 H5          0.9728   27.9244   -2.6155 H       1  <0>         0.0486
     33 H6          1.5922   29.1789   -1.4723 H       1  <0>         0.0486
     34 H7         -0.7432   25.6577    0.8646 H       1  <0>         0.0575
     35 H8         -0.0751   27.2549    1.2992 H       1  <0>         0.0575
     36 H9         -0.3124   29.0561   -0.1077 H       1  <0>         0.0575
     37 H10        -0.9983   28.8683   -1.7621 H       1  <0>         0.0575
     38 H11         3.4994   26.1824   -4.9506 H       1  <0>         0.0525
     39 H12         4.7231   25.1628   -5.7935 H       1  <0>         0.0525
     40 H13         7.9442   26.8871   -1.3661 H       1  <0>         0.1553
@<TRIPOS>BOND
     1     1     8   ar
     2     1     9   ar
     3     2    10   ar
     4     2    11   ar
     5     3     5    1
     6     3    17    1
     7     4     6    1
     8     4    17    1
     9     5    23    1
    10     6    23    1
    11     7    16    1
    12     7    27    1
    13     8    11   ar
    14     8    14    1
    15     9    10   ar
    16     9    15    1
    17    10    16    1
    18    11    17    1
    19    12    13    1
    20    12    15   am
    21    12    20    2
    22    13    16   am
    23    13    21    2
    24    14    24    1
    25    14    25    1
    26    14    26    1
    27    18    27    1
    28    19    27    1
    29    22    27    2
    30     1    28    1
    31     2    29    1
    32     3    30    1
    33     3    31    1
    34     4    32    1
    35     4    33    1
    36     5    34    1
    37     5    35    1
    38     6    36    1
    39     6    37    1
    40     7    38    1
    41     7    39    1
    42    15    40    1
@<TRIPOS>SUBSTRUCTURE
     1 <0>         1 TEMP              0 ****  ****    0 ROOT

