
##########                                Name:        ZK1_263_3KGC
##########                    Molecular_Weight:             407.243
##########                DOCK_Rotatable_Bonds:                   4
##########                       Formal_Charge:             -1.9999
##########                     HBond_Acceptors:                  12
##########                        HBond_Donors:                   1
##########                         Heavy_Atoms:                  27
##########                            HA_RMSDs:              15.998
##########                            HA_RMSDh:              15.866
##########                            HA_RMSDm:              14.826
##########                          Grid_Score:           42.024590
##########                     Grid_vdw_energy:           -6.282856
##########                      Grid_es_energy:           48.307446
##########           Internal_energy_repulsive:           19.191013

@<TRIPOS>MOLECULE
ZK1_263_3KGC
 40 42 1 0 0
SMALL
USER_CHARGES


@<TRIPOS>ATOM
      1 C1         -1.8083   23.7106    3.1896 C.ar    1  <0>        -0.0252
      2 C2         -3.7692   22.7336    1.4796 C.ar    1  <0>        -0.0168
      3 C3         -6.1107   24.5330    1.4233 C.3     1  <0>         0.0357
      4 C4         -4.3148   25.8217    0.0981 C.3     1  <0>         0.0357
      5 C5         -7.0697   25.6823    1.0874 C.3     1  <0>         0.0634
      6 C6         -5.4438   26.8010   -0.2560 C.3     1  <0>         0.0634
      7 C7         -3.9542   19.9305    0.8294 C.3     1  <0>         0.0479
      8 C8         -2.7404   24.5988    2.6325 C.ar    1  <0>         0.0776
      9 C9         -1.8617   22.3473    2.8909 C.ar    1  <0>         0.0561
     10 C10        -2.8324   21.8541    2.0278 C.ar    1  <0>         0.0601
     11 C11        -3.7249   24.0904    1.7716 C.ar    1  <0>         0.0434
     12 C12        -0.9701   20.1112    3.1674 C.2     1  <0>         0.3037
     13 C13        -1.9471   19.6009    2.3027 C.2     1  <0>         0.3064
     14 C14        -2.6830   26.0819    3.0180 C.3     1  <0>         0.4192
     15 N1         -0.9345   21.4641    3.4574 N.am    1  <0>        -0.2761
     16 N2         -2.8895   20.4695    1.7254 N.am    1  <0>        -0.2569
     17 N3         -4.7076   24.8684    1.1535 N.pl3   1  <0>        -0.3250
     18 O1         -6.1855   20.9116    2.2908 O.3     1  <0>        -0.8117
     19 O2         -6.4921   18.8915    0.7270 O.3     1  <0>        -0.8117
     20 O3         -0.1291   19.3662    3.6686 O.2     1  <0>        -0.2648
     21 O4         -1.9693   18.4001    2.0225 O.2     1  <0>        -0.2646
     22 O5         -5.1973   18.6617    2.9412 O.2     1  <0>        -0.3519
     23 O6         -6.7223   26.1333   -0.2391 O.3     1  <0>        -0.3767
     24 F1         -3.9399   26.5186    3.1644 F       1  <0>        -0.1658
     25 F2         -2.0491   26.1802    4.1787 F       1  <0>        -0.1658
     26 F3         -2.0881   26.8114    2.1056 F       1  <0>        -0.1658
     27 P1         -5.5058   19.5234    1.7968 P.3     1  <0>        -0.0482
     28 H1         -1.0436   24.0839    3.8547 H       1  <0>         0.0643
     29 H2         -4.5365   22.3539    0.8212 H       1  <0>         0.0655
     30 H3         -6.2119   24.2977    2.4930 H       1  <0>         0.0486
     31 H4         -6.3839   23.6621    0.8093 H       1  <0>         0.0486
     32 H5         -4.0500   25.2528   -0.8053 H       1  <0>         0.0486
     33 H6         -3.4498   26.4002    0.4545 H       1  <0>         0.0486
     34 H7         -8.1125   25.3332    1.1140 H       1  <0>         0.0575
     35 H8         -6.9578   26.5011    1.8134 H       1  <0>         0.0575
     36 H9         -5.4552   27.6176    0.4809 H       1  <0>         0.0575
     37 H10        -5.2642   27.2076   -1.2621 H       1  <0>         0.0575
     38 H11        -4.1963   20.6863    0.0677 H       1  <0>         0.0525
     39 H12        -3.5841   19.0144    0.3461 H       1  <0>         0.0525
     40 H13        -0.2362   21.8160    4.0808 H       1  <0>         0.1553
@<TRIPOS>BOND
     1     1     8   ar
     2     1     9   ar
     3     2    10   ar
     4     2    11   ar
     5     3     5    1
     6     3    17    1
     7     4     6    1
     8     4    17    1
     9     5    23    1
    10     6    23    1
    11     7    16    1
    12     7    27    1
    13     8    11   ar
    14     8    14    1
    15     9    10   ar
    16     9    15    1
    17    10    16    1
    18    11    17    1
    19    12    13    1
    20    12    15   am
    21    12    20    2
    22    13    16   am
    23    13    21    2
    24    14    24    1
    25    14    25    1
    26    14    26    1
    27    18    27    1
    28    19    27    1
    29    22    27    2
    30     1    28    1
    31     2    29    1
    32     3    30    1
    33     3    31    1
    34     4    32    1
    35     4    33    1
    36     5    34    1
    37     5    35    1
    38     6    36    1
    39     6    37    1
    40     7    38    1
    41     7    39    1
    42    15    40    1
@<TRIPOS>SUBSTRUCTURE
     1 <0>         1 TEMP              0 ****  ****    0 ROOT

