
##########                                Name:        ZK1_263_3KGC
##########                    Molecular_Weight:             407.243
##########                DOCK_Rotatable_Bonds:                   4
##########                       Formal_Charge:             -1.9999
##########                     HBond_Acceptors:                  12
##########                        HBond_Donors:                   1
##########                         Heavy_Atoms:                  27
##########                            HA_RMSDs:              11.817
##########                            HA_RMSDh:              11.635
##########                            HA_RMSDm:              10.822
##########                          Grid_Score:           45.335812
##########                     Grid_vdw_energy:          -15.788573
##########                      Grid_es_energy:           61.124386
##########           Internal_energy_repulsive:           15.659189

@<TRIPOS>MOLECULE
ZK1_263_3KGC
 40 42 1 0 0
SMALL
USER_CHARGES


@<TRIPOS>ATOM
      1 C1          1.7475   25.4960   -0.2308 C.ar    1  <0>        -0.0252
      2 C2         -0.4864   25.5449   -1.8834 C.ar    1  <0>        -0.0168
      3 C3         -1.8561   28.1923   -0.3557 C.3     1  <0>         0.0357
      4 C4         -0.9708   28.4144   -2.7658 C.3     1  <0>         0.0357
      5 C5         -2.3466   29.6399   -0.4870 C.3     1  <0>         0.0634
      6 C6         -1.6508   29.7916   -2.7657 C.3     1  <0>         0.0634
      7 C7         -1.3584   23.2039   -3.3233 C.3     1  <0>         0.0479
      8 C8          1.0163   26.6857   -0.3645 C.ar    1  <0>         0.0776
      9 C9          1.3600   24.3444   -0.9195 C.ar    1  <0>         0.0561
     10 C10         0.2509   24.3652   -1.7561 C.ar    1  <0>         0.0601
     11 C11        -0.1096   26.6946   -1.2018 C.ar    1  <0>         0.0434
     12 C12         1.7209   22.0088   -1.4545 C.2     1  <0>         0.3037
     13 C13         0.6017   22.0156   -2.2969 C.2     1  <0>         0.3064
     14 C14         1.4409   27.9190    0.4419 C.3     1  <0>         0.4192
     15 N1          2.0883   23.1572   -0.7748 N.am    1  <0>        -0.2761
     16 N2         -0.1454   23.1958   -2.4542 N.am    1  <0>        -0.2569
     17 N3         -0.9194   27.8125   -1.4198 N.pl3   1  <0>        -0.3250
     18 O1         -3.9910   24.1663   -2.8543 O.3     1  <0>        -0.8117
     19 O2         -3.5125   21.6473   -2.6393 O.3     1  <0>        -0.8117
     20 O3          2.3939   20.9879   -1.3181 O.2     1  <0>        -0.2648
     21 O4          0.2833   21.0017   -2.9229 O.2     1  <0>        -0.2646
     22 O5         -2.6367   23.3118   -0.8801 O.2     1  <0>        -0.3519
     23 O6         -2.7706   29.8076   -1.8566 O.3     1  <0>        -0.3767
     24 F1          0.7402   27.9269    1.5825 F       1  <0>        -0.1658
     25 F2          2.7314   27.8010    0.7236 F       1  <0>        -0.1658
     26 F3          1.2107   29.0382   -0.2006 F       1  <0>        -0.1658
     27 P1         -2.9217   23.0796   -2.2988 P.3     1  <0>        -0.0482
     28 H1          2.6169   25.4704    0.4095 H       1  <0>         0.0643
     29 H2         -1.3593   25.5630   -2.5190 H       1  <0>         0.0655
     30 H3         -1.3441   28.0856    0.6120 H       1  <0>         0.0486
     31 H4         -2.7285   27.5240   -0.4061 H       1  <0>         0.0486
     32 H5         -1.5400   27.7441   -3.4266 H       1  <0>         0.0486
     33 H6          0.0587   28.5334   -3.1346 H       1  <0>         0.0486
     34 H7         -3.1850   29.8256    0.2005 H       1  <0>         0.0575
     35 H8         -1.5363   30.3437   -0.2465 H       1  <0>         0.0575
     36 H9         -0.9213   30.5524   -2.4506 H       1  <0>         0.0575
     37 H10        -2.0093   30.0153   -3.7813 H       1  <0>         0.0575
     38 H11        -1.3808   24.1426   -3.8965 H       1  <0>         0.0525
     39 H12        -1.3119   22.3453   -4.0093 H       1  <0>         0.0525
     40 H13         2.8856   23.1388   -0.1715 H       1  <0>         0.1553
@<TRIPOS>BOND
     1     1     8   ar
     2     1     9   ar
     3     2    10   ar
     4     2    11   ar
     5     3     5    1
     6     3    17    1
     7     4     6    1
     8     4    17    1
     9     5    23    1
    10     6    23    1
    11     7    16    1
    12     7    27    1
    13     8    11   ar
    14     8    14    1
    15     9    10   ar
    16     9    15    1
    17    10    16    1
    18    11    17    1
    19    12    13    1
    20    12    15   am
    21    12    20    2
    22    13    16   am
    23    13    21    2
    24    14    24    1
    25    14    25    1
    26    14    26    1
    27    18    27    1
    28    19    27    1
    29    22    27    2
    30     1    28    1
    31     2    29    1
    32     3    30    1
    33     3    31    1
    34     4    32    1
    35     4    33    1
    36     5    34    1
    37     5    35    1
    38     6    36    1
    39     6    37    1
    40     7    38    1
    41     7    39    1
    42    15    40    1
@<TRIPOS>SUBSTRUCTURE
     1 <0>         1 TEMP              0 ****  ****    0 ROOT

