
##########                                Name:        ZK1_263_3KGC
##########                    Molecular_Weight:             407.243
##########                DOCK_Rotatable_Bonds:                   4
##########                       Formal_Charge:             -1.9999
##########                     HBond_Acceptors:                  12
##########                        HBond_Donors:                   1
##########                         Heavy_Atoms:                  27
##########                            HA_RMSDs:               8.884
##########                            HA_RMSDh:               8.253
##########                            HA_RMSDm:               7.305
##########                          Grid_Score:           59.931099
##########                     Grid_vdw_energy:          -26.856070
##########                      Grid_es_energy:           86.787170
##########           Internal_energy_repulsive:           14.379034

@<TRIPOS>MOLECULE
ZK1_263_3KGC
 40 42 1 0 0
SMALL
USER_CHARGES


@<TRIPOS>ATOM
      1 C1          6.5736   29.2469   -2.2681 C.ar    1  <0>        -0.0252
      2 C2          5.6484   26.8124   -3.2380 C.ar    1  <0>        -0.0168
      3 C3          6.3707   27.0136   -6.3024 C.3     1  <0>         0.0357
      4 C4          8.2311   25.8629   -4.9397 C.3     1  <0>         0.0357
      5 C5          7.1897   26.6770   -7.5551 C.3     1  <0>         0.0634
      6 C6          8.8377   25.4897   -6.3005 C.3     1  <0>         0.0634
      7 C7          3.5395   25.3566   -1.9160 C.3     1  <0>         0.0479
      8 C8          7.1377   28.7122   -3.4359 C.ar    1  <0>         0.0776
      9 C9          5.5561   28.5660   -1.5961 C.ar    1  <0>         0.0561
     10 C10         5.0969   27.3430   -2.0692 C.ar    1  <0>         0.0601
     11 C11         6.6595   27.4825   -3.9137 C.ar    1  <0>         0.0434
     12 C12         3.9851   28.4446    0.2448 C.2     1  <0>         0.3037
     13 C13         3.5100   27.2134   -0.2250 C.2     1  <0>         0.3064
     14 C14         8.2202   29.5076   -4.1755 C.3     1  <0>         0.4192
     15 N1          4.9903   29.1092   -0.4361 N.am    1  <0>        -0.2761
     16 N2          4.0619   26.6515   -1.3893 N.am    1  <0>        -0.2569
     17 N3          7.1370   26.8451   -5.0621 N.pl3   1  <0>        -0.3250
     18 O1          2.6258   24.7182   -4.5302 O.3     1  <0>        -0.8117
     19 O2          0.9103   25.0551   -2.6423 O.3     1  <0>        -0.8117
     20 O3          3.5229   28.9421    1.2707 O.2     1  <0>        -0.2648
     21 O4          2.6308   26.6057    0.3904 O.2     1  <0>        -0.2646
     22 O5          2.1983   27.0557   -3.6274 O.2     1  <0>        -0.3519
     23 O6          7.8104   25.3973   -7.3089 O.3     1  <0>        -0.3767
     24 F1          7.9613   30.8103   -4.0078 F       1  <0>        -0.1658
     25 F2          9.3907   29.2208   -3.6221 F       1  <0>        -0.1658
     26 F3          8.2418   29.2452   -5.4597 F       1  <0>        -0.1658
     27 P1          2.2541   25.6412   -3.2484 P.3     1  <0>        -0.0482
     28 H1          6.9289   30.1925   -1.8857 H       1  <0>         0.0643
     29 H2          5.2842   25.8702   -3.6202 H       1  <0>         0.0655
     30 H3          6.0468   28.0626   -6.3707 H       1  <0>         0.0486
     31 H4          5.4997   26.3427   -6.2663 H       1  <0>         0.0486
     32 H5          7.8306   24.9504   -4.4739 H       1  <0>         0.0486
     33 H6          9.0227   26.2983   -4.3122 H       1  <0>         0.0486
     34 H7          6.5366   26.6240   -8.4386 H       1  <0>         0.0575
     35 H8          7.9545   27.4474   -7.7329 H       1  <0>         0.0575
     36 H9          9.5619   26.2635   -6.5953 H       1  <0>         0.0575
     37 H10         9.3442   24.5171   -6.2135 H       1  <0>         0.0575
     38 H11         4.3747   24.7816   -2.3425 H       1  <0>         0.0525
     39 H12         3.0792   24.7948   -1.0898 H       1  <0>         0.0525
     40 H13         5.3172   29.9904   -0.0946 H       1  <0>         0.1553
@<TRIPOS>BOND
     1     1     8   ar
     2     1     9   ar
     3     2    10   ar
     4     2    11   ar
     5     3     5    1
     6     3    17    1
     7     4     6    1
     8     4    17    1
     9     5    23    1
    10     6    23    1
    11     7    16    1
    12     7    27    1
    13     8    11   ar
    14     8    14    1
    15     9    10   ar
    16     9    15    1
    17    10    16    1
    18    11    17    1
    19    12    13    1
    20    12    15   am
    21    12    20    2
    22    13    16   am
    23    13    21    2
    24    14    24    1
    25    14    25    1
    26    14    26    1
    27    18    27    1
    28    19    27    1
    29    22    27    2
    30     1    28    1
    31     2    29    1
    32     3    30    1
    33     3    31    1
    34     4    32    1
    35     4    33    1
    36     5    34    1
    37     5    35    1
    38     6    36    1
    39     6    37    1
    40     7    38    1
    41     7    39    1
    42    15    40    1
@<TRIPOS>SUBSTRUCTURE
     1 <0>         1 TEMP              0 ****  ****    0 ROOT

