
##########                                Name:        JIN_600_2HZI
##########                    Molecular_Weight:              429.28
##########                DOCK_Rotatable_Bonds:                   3
##########                       Formal_Charge:        -9.99868e-05
##########                     HBond_Acceptors:                   8
##########                        HBond_Donors:                   1
##########                         Heavy_Atoms:                  29
##########                            HA_RMSDs:               0.413
##########                            HA_RMSDh:               0.413
##########                            HA_RMSDm:               0.413
##########                          Grid_Score:          -69.909218
##########                     Grid_vdw_energy:          -67.072227
##########                      Grid_es_energy:           -2.836990
##########           Internal_energy_repulsive:           11.455964

@<TRIPOS>MOLECULE
JIN_600_2HZI
 44 47 1 0 0
SMALL
USER_CHARGES


@<TRIPOS>ATOM
      1 C1          8.7610   11.9197    1.8124 C.3     1  <0>        -0.0369
      2 C2         14.9164   16.0639    5.1536 C.3     1  <0>         0.0100
      3 C3         22.3003   17.5180    4.7387 C.ar    1  <0>        -0.0590
      4 C4         21.9015   16.4883    5.6292 C.ar    1  <0>        -0.0427
      5 C5         21.5097   17.8261    3.5944 C.ar    1  <0>        -0.0427
      6 C6         11.9190   13.4740    4.1443 C.ar    1  <0>        -0.0377
      7 C7         10.5835   13.8411    4.3911 C.ar    1  <0>        -0.0244
      8 C8         11.2437   12.0459    2.3725 C.ar    1  <0>        -0.0348
      9 C9         18.3963   14.3670    3.4398 C.2     1  <0>        -0.0370
     10 C10        16.9703   12.5981    2.5300 C.ar    1  <0>         0.0416
     11 C11         9.9132   12.4774    2.6049 C.ar    1  <0>        -0.0135
     12 C12        12.3073   12.6123    3.1040 C.ar    1  <0>         0.0340
     13 C13         9.5670   13.3400    3.6175 C.ar    1  <0>         0.1264
     14 C14        20.6801   15.8294    5.4122 C.ar    1  <0>         0.0502
     15 C15        20.3011   17.1248    3.4246 C.ar    1  <0>         0.0502
     16 C16        17.1529   13.7710    3.2844 C.ar    1  <0>         0.0343
     17 C17        18.5302   15.5479    4.1714 C.2     1  <0>         0.0479
     18 C18        19.8987   16.1226    4.3246 C.ar    1  <0>         0.0237
     19 C19        16.0699   14.3885    3.8509 C.ar    1  <0>         0.1398
     20 C20        17.3703   16.0675    4.7627 C.2     1  <0>         0.2524
     21 C21        14.7282   12.7443    2.9837 C.ar    1  <0>         0.2212
     22 N1         15.7227   12.0982    2.4240 N.ar    1  <0>        -0.2220
     23 N2         14.8332   13.8695    3.7092 N.ar    1  <0>        -0.1983
     24 N3         13.5483   12.1403    2.7781 N.pl3   1  <0>        -0.2836
     25 N4         16.1755   15.4838    4.5909 N.am    1  <0>        -0.2546
     26 O1         17.4044   17.0982    5.4370 O.2     1  <0>        -0.2696
     27 F1          8.3137   13.6744    3.9040 F       1  <0>        -0.2052
     28 Cl1        20.1967   14.5263    6.5385 Cl      1  <0>        -0.0829
     29 Cl2        19.4065   17.5930    1.9998 Cl      1  <0>        -0.0829
     30 H1          8.3900   11.0050    2.2979 H       1  <0>         0.0278
     31 H2          7.9526   12.6645    1.7674 H       1  <0>         0.0278
     32 H3          9.0983   11.6824    0.7926 H       1  <0>         0.0278
     33 H4         15.1565   16.9625    5.7409 H       1  <0>         0.0433
     34 H5         14.2377   16.3340    4.3312 H       1  <0>         0.0433
     35 H6         14.4289   15.3215    5.8027 H       1  <0>         0.0433
     36 H7         23.2080   18.0712    4.9292 H       1  <0>         0.0618
     37 H8         22.5295   16.2143    6.4640 H       1  <0>         0.0632
     38 H9         21.8269   18.5726    2.8813 H       1  <0>         0.0632
     39 H10        12.6868   13.8758    4.7888 H       1  <0>         0.0637
     40 H11        10.3563   14.5236    5.1967 H       1  <0>         0.0647
     41 H12        11.4424   11.2828    1.6346 H       1  <0>         0.0640
     42 H13        19.2676   13.9132    2.9911 H       1  <0>         0.0633
     43 H14        17.8060   12.1115    2.0490 H       1  <0>         0.0838
     44 H15        13.5799   11.2436    2.3367 H       1  <0>         0.1550
@<TRIPOS>BOND
     1     1    11    1
     2     2    25    1
     3     3     4   ar
     4     3     5   ar
     5     4    14   ar
     6     5    15   ar
     7     6     7   ar
     8     6    12   ar
     9     7    13   ar
    10     8    11   ar
    11     8    12   ar
    12     9    16    1
    13     9    17    2
    14    10    16   ar
    15    10    22   ar
    16    11    13   ar
    17    12    24    1
    18    13    27    1
    19    14    18   ar
    20    14    28    1
    21    15    18   ar
    22    15    29    1
    23    16    19   ar
    24    17    18    1
    25    17    20    1
    26    19    23   ar
    27    19    25    1
    28    20    25   am
    29    20    26    2
    30    21    22   ar
    31    21    23   ar
    32    21    24    1
    33     1    30    1
    34     1    31    1
    35     1    32    1
    36     2    33    1
    37     2    34    1
    38     2    35    1
    39     3    36    1
    40     4    37    1
    41     5    38    1
    42     6    39    1
    43     7    40    1
    44     8    41    1
    45     9    42    1
    46    10    43    1
    47    24    44    1
@<TRIPOS>SUBSTRUCTURE
     1 <0>         1 TEMP              0 ****  ****    0 ROOT

