
##########                                Name:        JIN_600_2HZI
##########                    Molecular_Weight:              429.28
##########                DOCK_Rotatable_Bonds:                   3
##########                       Formal_Charge:        -9.99868e-05
##########                     HBond_Acceptors:                   8
##########                        HBond_Donors:                   1
##########                         Heavy_Atoms:                  29
##########                            HA_RMSDs:               0.272
##########                            HA_RMSDh:               0.272
##########                            HA_RMSDm:               0.272
##########                          Grid_Score:          -66.838699
##########                     Grid_vdw_energy:          -63.787117
##########                      Grid_es_energy:           -3.051582
##########           Internal_energy_repulsive:           11.988291

@<TRIPOS>MOLECULE
JIN_600_2HZI
 44 47 1 0 0
SMALL
USER_CHARGES


@<TRIPOS>ATOM
      1 C1          9.1900   11.7914    1.7031 C.3     1  <0>        -0.0369
      2 C2         15.1905   16.1275    5.4102 C.3     1  <0>         0.0100
      3 C3         22.5180   17.8171    4.8462 C.ar    1  <0>        -0.0590
      4 C4         22.1162   16.8518    5.8048 C.ar    1  <0>        -0.0427
      5 C5         21.7497   18.0206    3.6640 C.ar    1  <0>        -0.0427
      6 C6         12.1715   13.7696    3.9444 C.ar    1  <0>        -0.0377
      7 C7         10.8245   14.1692    4.0134 C.ar    1  <0>        -0.0244
      8 C8         11.6227   12.0329    2.4222 C.ar    1  <0>        -0.0348
      9 C9         18.6836   14.5669    3.5964 C.2     1  <0>        -0.0370
     10 C10        17.2915   12.7755    2.6781 C.ar    1  <0>         0.0416
     11 C11        10.2823   12.4930    2.4655 C.ar    1  <0>        -0.0135
     12 C12        12.6315   12.7312    3.1162 C.ar    1  <0>         0.0340
     13 C13         9.8665   13.5273    3.2696 C.ar    1  <0>         0.1264
     14 C14        20.9121   16.1546    5.6123 C.ar    1  <0>         0.0502
     15 C15        20.5580   17.2850    3.5221 C.ar    1  <0>         0.0502
     16 C16        17.4550   13.9381    3.4526 C.ar    1  <0>         0.0343
     17 C17        18.7977   15.7365    4.3491 C.2     1  <0>         0.0479
     18 C18        20.1519   16.3478    4.4879 C.ar    1  <0>         0.0237
     19 C19        16.3660   14.5124    4.0519 C.ar    1  <0>         0.1398
     20 C20        17.6352   16.2103    4.9728 C.2     1  <0>         0.2524
     21 C21        15.0554   12.8473    3.1772 C.ar    1  <0>         0.2212
     22 N1         16.0570   12.2416    2.5857 N.ar    1  <0>        -0.2220
     23 N2         15.1422   13.9605    3.9233 N.ar    1  <0>        -0.1983
     24 N3         13.8896   12.2134    2.9819 N.pl3   1  <0>        -0.2836
     25 N4         16.4545   15.5956    4.8119 N.am    1  <0>        -0.2546
     26 O1         17.6528   17.2280    5.6671 O.2     1  <0>        -0.2696
     27 F1          8.5979   13.9026    3.3901 F       1  <0>        -0.2052
     28 Cl1        20.4249   14.9333    6.8252 Cl      1  <0>        -0.0829
     29 Cl2        19.6896   17.6243    2.0455 Cl      1  <0>        -0.0829
     30 H1          8.7738   10.9812    2.3199 H       1  <0>         0.0278
     31 H2          8.3946   12.5104    1.4572 H       1  <0>         0.0278
     32 H3          9.6033   11.3700    0.7748 H       1  <0>         0.0278
     33 H4         15.4162   17.0210    6.0108 H       1  <0>         0.0433
     34 H5         14.4884   16.3939    4.6064 H       1  <0>         0.0433
     35 H6         14.7374   15.3585    6.0531 H       1  <0>         0.0433
     36 H7         23.4111   18.4009    5.0135 H       1  <0>         0.0618
     37 H8         22.7288   16.6553    6.6723 H       1  <0>         0.0632
     38 H9         22.0707   18.7158    2.9023 H       1  <0>         0.0632
     39 H10        12.8907   14.2884    4.5608 H       1  <0>         0.0637
     40 H11        10.5417   14.9886    4.6577 H       1  <0>         0.0647
     41 H12        11.8710   11.1467    1.8570 H       1  <0>         0.0640
     42 H13        19.5586   14.1477    3.1221 H       1  <0>         0.0633
     43 H14        18.1313   12.3231    2.1715 H       1  <0>         0.0838
     44 H15        13.9471   11.2536    2.7070 H       1  <0>         0.1550
@<TRIPOS>BOND
     1     1    11    1
     2     2    25    1
     3     3     4   ar
     4     3     5   ar
     5     4    14   ar
     6     5    15   ar
     7     6     7   ar
     8     6    12   ar
     9     7    13   ar
    10     8    11   ar
    11     8    12   ar
    12     9    16    1
    13     9    17    2
    14    10    16   ar
    15    10    22   ar
    16    11    13   ar
    17    12    24    1
    18    13    27    1
    19    14    18   ar
    20    14    28    1
    21    15    18   ar
    22    15    29    1
    23    16    19   ar
    24    17    18    1
    25    17    20    1
    26    19    23   ar
    27    19    25    1
    28    20    25   am
    29    20    26    2
    30    21    22   ar
    31    21    23   ar
    32    21    24    1
    33     1    30    1
    34     1    31    1
    35     1    32    1
    36     2    33    1
    37     2    34    1
    38     2    35    1
    39     3    36    1
    40     4    37    1
    41     5    38    1
    42     6    39    1
    43     7    40    1
    44     8    41    1
    45     9    42    1
    46    10    43    1
    47    24    44    1
@<TRIPOS>SUBSTRUCTURE
     1 <0>         1 TEMP              0 ****  ****    0 ROOT

