
##########                                Name:        JIN_600_2HZI
##########                    Molecular_Weight:              429.28
##########                DOCK_Rotatable_Bonds:                   3
##########                       Formal_Charge:        -9.99868e-05
##########                     HBond_Acceptors:                   8
##########                        HBond_Donors:                   1
##########                         Heavy_Atoms:                  29
##########                            HA_RMSDs:               0.319
##########                            HA_RMSDh:               0.319
##########                            HA_RMSDm:               0.319
##########                          Grid_Score:          -67.649811
##########                     Grid_vdw_energy:          -64.864975
##########                      Grid_es_energy:           -2.784835
##########           Internal_energy_repulsive:           10.979854

@<TRIPOS>MOLECULE
JIN_600_2HZI
 44 47 1 0 0
SMALL
USER_CHARGES


@<TRIPOS>ATOM
      1 C1          8.9421   11.8501    1.8195 C.3     1  <0>        -0.0369
      2 C2         14.9994   16.2145    4.9615 C.3     1  <0>         0.0100
      3 C3         22.3831   17.6904    4.6077 C.ar    1  <0>        -0.0590
      4 C4         21.9541   16.7545    5.5836 C.ar    1  <0>        -0.0427
      5 C5         21.6338   17.8764    3.4105 C.ar    1  <0>        -0.0427
      6 C6         12.0542   13.4557    4.1781 C.ar    1  <0>        -0.0377
      7 C7         10.7130   13.8179    4.3991 C.ar    1  <0>        -0.0244
      8 C8         11.4150   11.9992    2.4160 C.ar    1  <0>        -0.0348
      9 C9         18.5302   14.4191    3.4658 C.2     1  <0>        -0.0370
     10 C10        17.1370   12.5763    2.6574 C.ar    1  <0>         0.0416
     11 C11        10.0786   12.4256    2.6218 C.ar    1  <0>        -0.0135
     12 C12        12.4638   12.5822    3.1559 C.ar    1  <0>         0.0340
     13 C13         9.7116   13.2999    3.6169 C.ar    1  <0>         0.1264
     14 C14        20.7425   16.0704    5.3912 C.ar    1  <0>         0.0502
     15 C15        20.4334   17.1550    3.2698 C.ar    1  <0>         0.0502
     16 C16        17.2943   13.8040    3.3255 C.ar    1  <0>         0.0343
     17 C17        18.6393   15.6526    4.1093 C.2     1  <0>         0.0479
     18 C18        20.0005   16.2474    4.2521 C.ar    1  <0>         0.0237
     19 C19        16.1941   14.4543    3.8172 C.ar    1  <0>         0.1398
     20 C20        17.4623   16.2067    4.6313 C.2     1  <0>         0.2524
     21 C21        14.8836   12.7398    3.0439 C.ar    1  <0>         0.2212
     22 N1         15.8952   12.0608    2.5590 N.ar    1  <0>        -0.2220
     23 N2         14.9643   13.9171    3.6849 N.ar    1  <0>        -0.1983
     24 N3         13.7124   12.1134    2.8557 N.pl3   1  <0>        -0.2836
     25 N4         16.2753   15.6030    4.4749 N.am    1  <0>        -0.2546
     26 O1         17.4739   17.2854    5.2267 O.2     1  <0>        -0.2696
     27 F1          8.4520   13.6305    3.8795 F       1  <0>        -0.2052
     28 Cl1        20.2209   14.8860    6.6263 Cl      1  <0>        -0.0829
     29 Cl2        19.5901   17.4710    1.7737 Cl      1  <0>        -0.0829
     30 H1          8.5691   10.9399    2.3117 H       1  <0>         0.0278
     31 H2          8.1301   12.5891    1.7517 H       1  <0>         0.0278
     32 H3          9.2966   11.6009    0.8084 H       1  <0>         0.0278
     33 H4         15.2200   17.1565    5.4850 H       1  <0>         0.0433
     34 H5         14.3400   16.4170    4.1047 H       1  <0>         0.0433
     35 H6         14.5000   15.5194    5.6525 H       1  <0>         0.0433
     36 H7         23.2824   18.2650    4.7733 H       1  <0>         0.0618
     37 H8         22.5520   16.5701    6.4639 H       1  <0>         0.0632
     38 H9         21.9753   18.5482    2.6369 H       1  <0>         0.0632
     39 H10        12.8096   13.8710    4.8287 H       1  <0>         0.0637
     40 H11        10.4692   14.5100    5.1916 H       1  <0>         0.0647
     41 H12        11.6297   11.2273    1.6919 H       1  <0>         0.0640
     42 H13        19.4149   13.9393    3.0740 H       1  <0>         0.0633
     43 H14        17.9871   12.0612    2.2349 H       1  <0>         0.0838
     44 H15        13.7579   11.2005    2.4502 H       1  <0>         0.1550
@<TRIPOS>BOND
     1     1    11    1
     2     2    25    1
     3     3     4   ar
     4     3     5   ar
     5     4    14   ar
     6     5    15   ar
     7     6     7   ar
     8     6    12   ar
     9     7    13   ar
    10     8    11   ar
    11     8    12   ar
    12     9    16    1
    13     9    17    2
    14    10    16   ar
    15    10    22   ar
    16    11    13   ar
    17    12    24    1
    18    13    27    1
    19    14    18   ar
    20    14    28    1
    21    15    18   ar
    22    15    29    1
    23    16    19   ar
    24    17    18    1
    25    17    20    1
    26    19    23   ar
    27    19    25    1
    28    20    25   am
    29    20    26    2
    30    21    22   ar
    31    21    23   ar
    32    21    24    1
    33     1    30    1
    34     1    31    1
    35     1    32    1
    36     2    33    1
    37     2    34    1
    38     2    35    1
    39     3    36    1
    40     4    37    1
    41     5    38    1
    42     6    39    1
    43     7    40    1
    44     8    41    1
    45     9    42    1
    46    10    43    1
    47    24    44    1
@<TRIPOS>SUBSTRUCTURE
     1 <0>         1 TEMP              0 ****  ****    0 ROOT

