
##########                                Name:        JIN_600_2HZI
##########                    Molecular_Weight:              429.28
##########                DOCK_Rotatable_Bonds:                   3
##########                       Formal_Charge:        -9.99868e-05
##########                     HBond_Acceptors:                   8
##########                        HBond_Donors:                   1
##########                         Heavy_Atoms:                  29
##########                            HA_RMSDs:               0.498
##########                            HA_RMSDh:               0.498
##########                            HA_RMSDm:               0.498
##########                          Grid_Score:          -66.592461
##########                     Grid_vdw_energy:          -63.717056
##########                      Grid_es_energy:           -2.875408
##########           Internal_energy_repulsive:           11.164775

@<TRIPOS>MOLECULE
JIN_600_2HZI
 44 47 1 0 0
SMALL
USER_CHARGES


@<TRIPOS>ATOM
      1 C1          8.7169   11.7655    1.7393 C.3     1  <0>        -0.0369
      2 C2         14.8188   15.9635    5.1890 C.3     1  <0>         0.0100
      3 C3         22.1797   17.4908    4.6312 C.ar    1  <0>        -0.0590
      4 C4         21.7869   16.5071    5.5748 C.ar    1  <0>        -0.0427
      5 C5         21.3885   17.7323    3.4714 C.ar    1  <0>        -0.0427
      6 C6         11.7905   13.4061    4.1243 C.ar    1  <0>        -0.0377
      7 C7         10.4506   13.8007    4.2918 C.ar    1  <0>        -0.0244
      8 C8         11.1742   11.8935    2.4018 C.ar    1  <0>        -0.0348
      9 C9         18.2927   14.2719    3.4577 C.2     1  <0>        -0.0370
     10 C10        16.8731   12.4721    2.5998 C.ar    1  <0>         0.0416
     11 C11         9.8408   12.3515    2.5518 C.ar    1  <0>        -0.0135
     12 C12        12.2124   12.4860    3.1490 C.ar    1  <0>         0.0340
     13 C13         9.4622   13.2705    3.5012 C.ar    1  <0>         0.1264
     14 C14        20.5703   15.8292    5.3920 C.ar    1  <0>         0.0502
     15 C15        20.1850   17.0145    3.3380 C.ar    1  <0>         0.0502
     16 C16        17.0536   13.6603    3.3304 C.ar    1  <0>         0.0343
     17 C17        18.4240   15.4672    4.1658 C.2     1  <0>         0.0479
     18 C18        19.7884   16.0588    4.2896 C.ar    1  <0>         0.0237
     19 C19        15.9720   14.2768    3.9006 C.ar    1  <0>         0.1398
     20 C20        17.2669   15.9854    4.7638 C.2     1  <0>         0.2524
     21 C21        14.6360   12.6033    3.0820 C.ar    1  <0>         0.2212
     22 N1         15.6296   11.9575    2.5203 N.ar    1  <0>        -0.2220
     23 N2         14.7391   13.7425    3.7856 N.ar    1  <0>        -0.1983
     24 N3         13.4599   11.9835    2.9038 N.pl3   1  <0>        -0.2836
     25 N4         16.0761   15.3864    4.6192 N.am    1  <0>        -0.2546
     26 O1         17.2994   17.0285    5.4189 O.2     1  <0>        -0.2696
     27 F1          8.2023   13.6337    3.7138 F       1  <0>        -0.2052
     28 Cl1        20.0945   14.5845    6.5854 Cl      1  <0>        -0.0829
     29 Cl2        19.2890   17.4001    1.8895 Cl      1  <0>        -0.0829
     30 H1          8.3127   10.8821    2.2552 H       1  <0>         0.0278
     31 H2          7.9214   12.5158    1.6193 H       1  <0>         0.0278
     32 H3          9.0953   11.4706    0.7494 H       1  <0>         0.0278
     33 H4         15.0575   16.8751    5.7565 H       1  <0>         0.0433
     34 H5         14.1261   16.2116    4.3713 H       1  <0>         0.0433
     35 H6         14.3482   15.2281    5.8580 H       1  <0>         0.0433
     36 H7         23.0834   18.0597    4.7929 H       1  <0>         0.0618
     37 H8         22.4156   16.2823    6.4236 H       1  <0>         0.0632
     38 H9         21.7015   18.4420    2.7200 H       1  <0>         0.0632
     39 H10        12.5348   13.8328    4.7802 H       1  <0>         0.0637
     40 H11        10.1976   14.5275    5.0495 H       1  <0>         0.0647
     41 H12        11.3947   11.0901    1.7145 H       1  <0>         0.0640
     42 H13        19.1625   13.8191    3.0051 H       1  <0>         0.0633
     43 H14        17.7073   11.9856    2.1161 H       1  <0>         0.0838
     44 H15        13.5001   11.0483    2.5520 H       1  <0>         0.1550
@<TRIPOS>BOND
     1     1    11    1
     2     2    25    1
     3     3     4   ar
     4     3     5   ar
     5     4    14   ar
     6     5    15   ar
     7     6     7   ar
     8     6    12   ar
     9     7    13   ar
    10     8    11   ar
    11     8    12   ar
    12     9    16    1
    13     9    17    2
    14    10    16   ar
    15    10    22   ar
    16    11    13   ar
    17    12    24    1
    18    13    27    1
    19    14    18   ar
    20    14    28    1
    21    15    18   ar
    22    15    29    1
    23    16    19   ar
    24    17    18    1
    25    17    20    1
    26    19    23   ar
    27    19    25    1
    28    20    25   am
    29    20    26    2
    30    21    22   ar
    31    21    23   ar
    32    21    24    1
    33     1    30    1
    34     1    31    1
    35     1    32    1
    36     2    33    1
    37     2    34    1
    38     2    35    1
    39     3    36    1
    40     4    37    1
    41     5    38    1
    42     6    39    1
    43     7    40    1
    44     8    41    1
    45     9    42    1
    46    10    43    1
    47    24    44    1
@<TRIPOS>SUBSTRUCTURE
     1 <0>         1 TEMP              0 ****  ****    0 ROOT

