
##########                                Name:        JIN_600_2HZI
##########                    Molecular_Weight:              429.28
##########                DOCK_Rotatable_Bonds:                   3
##########                       Formal_Charge:        -9.99868e-05
##########                     HBond_Acceptors:                   8
##########                        HBond_Donors:                   1
##########                         Heavy_Atoms:                  29
##########                            HA_RMSDs:               0.261
##########                            HA_RMSDh:               0.261
##########                            HA_RMSDm:               0.261
##########                          Grid_Score:          -66.474564
##########                     Grid_vdw_energy:          -63.591396
##########                      Grid_es_energy:           -2.883168
##########           Internal_energy_repulsive:           12.336585

@<TRIPOS>MOLECULE
JIN_600_2HZI
 44 47 1 0 0
SMALL
USER_CHARGES


@<TRIPOS>ATOM
      1 C1          9.1390   11.8475    2.0638 C.3     1  <0>        -0.0369
      2 C2         15.1941   16.1889    5.4356 C.3     1  <0>         0.0100
      3 C3         22.5295   17.8723    5.0300 C.ar    1  <0>        -0.0590
      4 C4         22.1678   16.8009    5.8866 C.ar    1  <0>        -0.0427
      5 C5         21.7220   18.1963    3.9021 C.ar    1  <0>        -0.0427
      6 C6         12.2638   13.6376    4.2678 C.ar    1  <0>        -0.0377
      7 C7         10.9182   13.9623    4.5184 C.ar    1  <0>        -0.0244
      8 C8         11.6222   12.0999    2.5770 C.ar    1  <0>        -0.0348
      9 C9         18.7114   14.6519    3.6487 C.2     1  <0>        -0.0370
     10 C10        17.3321   12.8723    2.6891 C.ar    1  <0>         0.0416
     11 C11        10.2787   12.4884    2.8101 C.ar    1  <0>        -0.0135
     12 C12        12.6722   12.7431    3.2634 C.ar    1  <0>         0.0340
     13 C13         9.9120   13.3841    3.7861 C.ar    1  <0>         0.1264
     14 C14        20.9648   16.1139    5.6543 C.ar    1  <0>         0.0502
     15 C15        20.5334   17.4656    3.7155 C.ar    1  <0>         0.0502
     16 C16        17.4850   14.0249    3.4805 C.ar    1  <0>         0.0343
     17 C17        18.8152   15.8118    4.4178 C.2     1  <0>         0.0479
     18 C18        20.1673   16.4213    4.5825 C.ar    1  <0>         0.0237
     19 C19        16.3879   14.5914    4.0726 C.ar    1  <0>         0.1398
     20 C20        17.6444   16.2774    5.0319 C.2     1  <0>         0.2524
     21 C21        15.0896   12.9375    3.1592 C.ar    1  <0>         0.2212
     22 N1         16.0991   12.3396    2.5734 N.ar    1  <0>        -0.2220
     23 N2         15.1662   14.0411    3.9206 N.ar    1  <0>        -0.1983
     24 N3         13.9266   12.3061    2.9403 N.pl3   1  <0>        -0.2836
     25 N4         16.4661   15.6647    4.8475 N.am    1  <0>        -0.2546
     26 O1         17.6525   17.2862    5.7394 O.2     1  <0>        -0.2696
     27 F1          8.6504   13.6815    4.0767 F       1  <0>        -0.2052
     28 Cl1        20.5282   14.7588    6.7375 Cl      1  <0>        -0.0829
     29 Cl2        19.6151   17.9561    2.3135 Cl      1  <0>        -0.0829
     30 H1          8.8126   10.9431    2.5982 H       1  <0>         0.0278
     31 H2          8.3004   12.5562    1.9965 H       1  <0>         0.0278
     32 H3          9.4712   11.5750    1.0511 H       1  <0>         0.0278
     33 H4         15.4115   17.0746    6.0506 H       1  <0>         0.0433
     34 H5         14.5027   16.4655    4.6260 H       1  <0>         0.0433
     35 H6         14.7326   15.4117    6.0625 H       1  <0>         0.0433
     36 H7         23.4219   18.4453    5.2341 H       1  <0>         0.0618
     37 H8         22.8096   16.5170    6.7074 H       1  <0>         0.0632
     38 H9         22.0118   18.9761    3.2135 H       1  <0>         0.0632
     39 H10        13.0238   14.1004    4.8799 H       1  <0>         0.0637
     40 H11        10.6748   14.6732    5.2942 H       1  <0>         0.0647
     41 H12        11.8414   11.3107    1.8731 H       1  <0>         0.0640
     42 H13        19.5928   14.2389    3.1808 H       1  <0>         0.0633
     43 H14        18.1787   12.4265    2.1880 H       1  <0>         0.0838
     44 H15        13.9836   11.4151    2.4899 H       1  <0>         0.1550
@<TRIPOS>BOND
     1     1    11    1
     2     2    25    1
     3     3     4   ar
     4     3     5   ar
     5     4    14   ar
     6     5    15   ar
     7     6     7   ar
     8     6    12   ar
     9     7    13   ar
    10     8    11   ar
    11     8    12   ar
    12     9    16    1
    13     9    17    2
    14    10    16   ar
    15    10    22   ar
    16    11    13   ar
    17    12    24    1
    18    13    27    1
    19    14    18   ar
    20    14    28    1
    21    15    18   ar
    22    15    29    1
    23    16    19   ar
    24    17    18    1
    25    17    20    1
    26    19    23   ar
    27    19    25    1
    28    20    25   am
    29    20    26    2
    30    21    22   ar
    31    21    23   ar
    32    21    24    1
    33     1    30    1
    34     1    31    1
    35     1    32    1
    36     2    33    1
    37     2    34    1
    38     2    35    1
    39     3    36    1
    40     4    37    1
    41     5    38    1
    42     6    39    1
    43     7    40    1
    44     8    41    1
    45     9    42    1
    46    10    43    1
    47    24    44    1
@<TRIPOS>SUBSTRUCTURE
     1 <0>         1 TEMP              0 ****  ****    0 ROOT

