
##########                                Name:        JIN_600_2HZI
##########                    Molecular_Weight:              429.28
##########                DOCK_Rotatable_Bonds:                   3
##########                       Formal_Charge:        -9.99868e-05
##########                     HBond_Acceptors:                   8
##########                        HBond_Donors:                   1
##########                         Heavy_Atoms:                  29
##########                            HA_RMSDs:               0.450
##########                            HA_RMSDh:               0.450
##########                            HA_RMSDm:               0.450
##########                          Grid_Score:          -67.696014
##########                     Grid_vdw_energy:          -65.011696
##########                      Grid_es_energy:           -2.684321
##########           Internal_energy_repulsive:           11.277387

@<TRIPOS>MOLECULE
JIN_600_2HZI
 44 47 1 0 0
SMALL
USER_CHARGES


@<TRIPOS>ATOM
      1 C1          8.7301   11.8473    1.9528 C.3     1  <0>        -0.0369
      2 C2         14.8632   16.2023    5.0049 C.3     1  <0>         0.0100
      3 C3         22.2533   17.6207    4.5666 C.ar    1  <0>        -0.0590
      4 C4         21.8335   16.6764    5.5385 C.ar    1  <0>        -0.0427
      5 C5         21.4861   17.8258    3.3840 C.ar    1  <0>        -0.0427
      6 C6         11.8866   13.5007    4.2175 C.ar    1  <0>        -0.0377
      7 C7         10.5506   13.8740    4.4511 C.ar    1  <0>        -0.0244
      8 C8         11.2131   12.0018    2.5045 C.ar    1  <0>        -0.0348
      9 C9         18.3608   14.3840    3.4599 C.2     1  <0>        -0.0370
     10 C10        16.9432   12.5547    2.6634 C.ar    1  <0>         0.0416
     11 C11         9.8817   12.4388    2.7212 C.ar    1  <0>        -0.0135
     12 C12        12.2761   12.5994    3.2117 C.ar    1  <0>         0.0340
     13 C13         9.5344   13.3400    3.6992 C.ar    1  <0>         0.1264
     14 C14        20.6142   16.0029    5.3579 C.ar    1  <0>         0.0502
     15 C15        20.2784   17.1144    3.2545 C.ar    1  <0>         0.0502
     16 C16        17.1184   13.7790    3.3332 C.ar    1  <0>         0.0343
     17 C17        18.4876   15.6147    4.1056 C.2     1  <0>         0.0479
     18 C18        19.8551   16.1983    4.2332 C.ar    1  <0>         0.0237
     19 C19        16.0297   14.4364    3.8406 C.ar    1  <0>         0.1398
     20 C20        17.3216   16.1763    4.6440 C.2     1  <0>         0.2524
     21 C21        14.6961   12.7345    3.0787 C.ar    1  <0>         0.2212
     22 N1         15.6963   12.0492    2.5791 N.ar    1  <0>        -0.2220
     23 N2         14.7941   13.9092    3.7221 N.ar    1  <0>        -0.1983
     24 N3         13.5178   12.1179    2.9033 N.pl3   1  <0>        -0.2836
     25 N4         16.1280   15.5824    4.5006 N.am    1  <0>        -0.2546
     26 O1         17.3491   17.2531    5.2424 O.2     1  <0>        -0.2696
     27 F1          8.2806   13.6824    3.9738 F       1  <0>        -0.2052
     28 Cl1        20.1043   14.8078    6.5875 Cl      1  <0>        -0.0829
     29 Cl2        19.4133   17.4537    1.7761 Cl      1  <0>        -0.0829
     30 H1          8.3619   10.9516    2.4746 H       1  <0>         0.0278
     31 H2          7.9198   12.5876    1.8792 H       1  <0>         0.0278
     32 H3          9.0669   11.5706    0.9428 H       1  <0>         0.0278
     33 H4         15.0976   17.1410    5.5284 H       1  <0>         0.0433
     34 H5         14.1947   16.4126    4.1571 H       1  <0>         0.0433
     35 H6         14.3670   15.5091    5.7001 H       1  <0>         0.0433
     36 H7         23.1592   18.1871    4.7242 H       1  <0>         0.0618
     37 H8         22.4443   16.4776    6.4068 H       1  <0>         0.0632
     38 H9         21.8198   18.5043    2.6128 H       1  <0>         0.0632
     39 H10        12.6542   13.9296    4.8446 H       1  <0>         0.0637
     40 H11        10.3225   14.5873    5.2293 H       1  <0>         0.0647
     41 H12        11.4129   11.2105    1.7972 H       1  <0>         0.0640
     42 H13        19.2367   13.8986    3.0556 H       1  <0>         0.0633
     43 H14        17.7839   12.0342    2.2289 H       1  <0>         0.0838
     44 H15        13.5516   11.2028    2.5017 H       1  <0>         0.1550
@<TRIPOS>BOND
     1     1    11    1
     2     2    25    1
     3     3     4   ar
     4     3     5   ar
     5     4    14   ar
     6     5    15   ar
     7     6     7   ar
     8     6    12   ar
     9     7    13   ar
    10     8    11   ar
    11     8    12   ar
    12     9    16    1
    13     9    17    2
    14    10    16   ar
    15    10    22   ar
    16    11    13   ar
    17    12    24    1
    18    13    27    1
    19    14    18   ar
    20    14    28    1
    21    15    18   ar
    22    15    29    1
    23    16    19   ar
    24    17    18    1
    25    17    20    1
    26    19    23   ar
    27    19    25    1
    28    20    25   am
    29    20    26    2
    30    21    22   ar
    31    21    23   ar
    32    21    24    1
    33     1    30    1
    34     1    31    1
    35     1    32    1
    36     2    33    1
    37     2    34    1
    38     2    35    1
    39     3    36    1
    40     4    37    1
    41     5    38    1
    42     6    39    1
    43     7    40    1
    44     8    41    1
    45     9    42    1
    46    10    43    1
    47    24    44    1
@<TRIPOS>SUBSTRUCTURE
     1 <0>         1 TEMP              0 ****  ****    0 ROOT

