
##########                                Name:        JIN_600_2HZI
##########                    Molecular_Weight:              429.28
##########                DOCK_Rotatable_Bonds:                   3
##########                       Formal_Charge:        -9.99868e-05
##########                     HBond_Acceptors:                   8
##########                        HBond_Donors:                   1
##########                         Heavy_Atoms:                  29
##########                            HA_RMSDs:               0.435
##########                            HA_RMSDh:               0.435
##########                            HA_RMSDm:               0.435
##########                          Grid_Score:          -68.757271
##########                     Grid_vdw_energy:          -66.071739
##########                      Grid_es_energy:           -2.685530
##########           Internal_energy_repulsive:           11.679572

@<TRIPOS>MOLECULE
JIN_600_2HZI
 44 47 1 0 0
SMALL
USER_CHARGES


@<TRIPOS>ATOM
      1 C1          8.7103   12.0133    1.8662 C.3     1  <0>        -0.0369
      2 C2         14.9099   16.0524    5.2700 C.3     1  <0>         0.0100
      3 C3         22.3039   17.4653    4.8660 C.ar    1  <0>        -0.0590
      4 C4         21.8786   16.4527    5.7638 C.ar    1  <0>        -0.0427
      5 C5         21.5346   17.7681    3.7059 C.ar    1  <0>        -0.0427
      6 C6         11.8946   13.5260    4.1897 C.ar    1  <0>        -0.0377
      7 C7         10.5627   13.8934    4.4541 C.ar    1  <0>        -0.0244
      8 C8         11.1985   12.1246    2.4046 C.ar    1  <0>        -0.0348
      9 C9         18.3736   14.3761    3.5037 C.2     1  <0>        -0.0370
     10 C10        16.9321   12.6443    2.5480 C.ar    1  <0>         0.0416
     11 C11         9.8715   12.5565    2.6555 C.ar    1  <0>        -0.0135
     12 C12        12.2706   12.6777    3.1338 C.ar    1  <0>         0.0340
     13 C13         9.5374   13.4059    3.6832 C.ar    1  <0>         0.1264
     14 C14        20.6523   15.8063    5.5369 C.ar    1  <0>         0.0502
     15 C15        20.3198   17.0798    3.5270 C.ar    1  <0>         0.0502
     16 C16        17.1252   13.7944    3.3342 C.ar    1  <0>         0.0343
     17 C17        18.5180   15.5353    4.2672 C.2     1  <0>         0.0479
     18 C18        19.8913   16.0949    4.4338 C.ar    1  <0>         0.0237
     19 C19        16.0480   14.4046    3.9194 C.ar    1  <0>         0.1398
     20 C20        17.3632   16.0475    4.8748 C.2     1  <0>         0.2524
     21 C21        14.6920   12.7955    3.0097 C.ar    1  <0>         0.2212
     22 N1         15.6805   12.1574    2.4306 N.ar    1  <0>        -0.2220
     23 N2         14.8071   13.8994    3.7658 N.ar    1  <0>        -0.1983
     24 N3         13.5070   12.2068    2.7897 N.pl3   1  <0>        -0.2836
     25 N4         16.1635   15.4782    4.6892 N.am    1  <0>        -0.2546
     26 O1         17.4065   17.0589    5.5773 O.2     1  <0>        -0.2696
     27 F1          8.2879   13.7399    3.9862 F       1  <0>        -0.2052
     28 Cl1        20.1355   14.5246    6.6727 Cl      1  <0>        -0.0829
     29 Cl2        19.4529   17.5401    2.0827 Cl      1  <0>        -0.0829
     30 H1          8.3411   11.0930    2.3424 H       1  <0>         0.0278
     31 H2          7.9037   12.7609    1.8392 H       1  <0>         0.0278
     32 H3          9.0373   11.7892    0.8401 H       1  <0>         0.0278
     33 H4         15.1582   16.9326    5.8814 H       1  <0>         0.0433
     34 H5         14.2321   16.3504    4.4566 H       1  <0>         0.0433
     35 H6         14.4177   15.2963    5.8992 H       1  <0>         0.0433
     36 H7         23.2156   18.0096    5.0631 H       1  <0>         0.0618
     37 H8         22.4904   16.1820    6.6117 H       1  <0>         0.0632
     38 H9         21.8720   18.5010    2.9880 H       1  <0>         0.0632
     39 H10        12.6697   13.9165    4.8323 H       1  <0>         0.0637
     40 H11        10.3450   14.5653    5.2712 H       1  <0>         0.0647
     41 H12        11.3880   11.3712    1.6543 H       1  <0>         0.0640
     42 H13        19.2406   13.9281    3.0410 H       1  <0>         0.0633
     43 H14        17.7632   12.1647    2.0523 H       1  <0>         0.0838
     44 H15        13.5307   11.3237    2.3212 H       1  <0>         0.1550
@<TRIPOS>BOND
     1     1    11    1
     2     2    25    1
     3     3     4   ar
     4     3     5   ar
     5     4    14   ar
     6     5    15   ar
     7     6     7   ar
     8     6    12   ar
     9     7    13   ar
    10     8    11   ar
    11     8    12   ar
    12     9    16    1
    13     9    17    2
    14    10    16   ar
    15    10    22   ar
    16    11    13   ar
    17    12    24    1
    18    13    27    1
    19    14    18   ar
    20    14    28    1
    21    15    18   ar
    22    15    29    1
    23    16    19   ar
    24    17    18    1
    25    17    20    1
    26    19    23   ar
    27    19    25    1
    28    20    25   am
    29    20    26    2
    30    21    22   ar
    31    21    23   ar
    32    21    24    1
    33     1    30    1
    34     1    31    1
    35     1    32    1
    36     2    33    1
    37     2    34    1
    38     2    35    1
    39     3    36    1
    40     4    37    1
    41     5    38    1
    42     6    39    1
    43     7    40    1
    44     8    41    1
    45     9    42    1
    46    10    43    1
    47    24    44    1
@<TRIPOS>SUBSTRUCTURE
     1 <0>         1 TEMP              0 ****  ****    0 ROOT

