
##########                                Name:        JIN_600_2HZI
##########                    Molecular_Weight:              429.28
##########                DOCK_Rotatable_Bonds:                   3
##########                       Formal_Charge:        -9.99868e-05
##########                     HBond_Acceptors:                   8
##########                        HBond_Donors:                   1
##########                         Heavy_Atoms:                  29
##########                            HA_RMSDs:               0.357
##########                            HA_RMSDh:               0.357
##########                            HA_RMSDm:               0.357
##########                          Grid_Score:          -69.038536
##########                     Grid_vdw_energy:          -66.195190
##########                      Grid_es_energy:           -2.843347
##########           Internal_energy_repulsive:           10.980530

@<TRIPOS>MOLECULE
JIN_600_2HZI
 44 47 1 0 0
SMALL
USER_CHARGES


@<TRIPOS>ATOM
      1 C1          8.9980   11.8689    1.7084 C.3     1  <0>        -0.0369
      2 C2         15.1413   15.8606    5.7007 C.3     1  <0>         0.0100
      3 C3         22.3581   17.7424    4.5443 C.ar    1  <0>        -0.0590
      4 C4         22.0006   16.8218    5.5626 C.ar    1  <0>        -0.0427
      5 C5         21.5444   17.8837    3.3836 C.ar    1  <0>        -0.0427
      6 C6         11.9517   13.5959    4.1822 C.ar    1  <0>        -0.0377
      7 C7         10.6089   14.0087    4.2558 C.ar    1  <0>        -0.0244
      8 C8         11.4160   12.0084    2.5006 C.ar    1  <0>        -0.0348
      9 C9         18.4709   14.5006    3.4667 C.2     1  <0>        -0.0370
     10 C10        17.0227   12.7521    2.5525 C.ar    1  <0>         0.0416
     11 C11        10.0812   12.4837    2.5541 C.ar    1  <0>        -0.0135
     12 C12        12.4173   12.6274    3.2762 C.ar    1  <0>         0.0340
     13 C13         9.6604   13.4496    3.4369 C.ar    1  <0>         0.1264
     14 C14        20.7960   16.1082    5.4493 C.ar    1  <0>         0.0502
     15 C15        20.3544   17.1344    3.3222 C.ar    1  <0>         0.0502
     16 C16        17.2424   13.8598    3.3908 C.ar    1  <0>         0.0343
     17 C17        18.6393   15.6160    4.2883 C.2     1  <0>         0.0479
     18 C18        19.9926   16.2421    4.3465 C.ar    1  <0>         0.0237
     19 C19        16.2064   14.3690    4.1273 C.ar    1  <0>         0.1398
     20 C20        17.5337   16.0217    5.0485 C.2     1  <0>         0.2524
     21 C21        14.8418   12.7449    3.2581 C.ar    1  <0>         0.2212
     22 N1         15.7919   12.2023    2.5352 N.ar    1  <0>        -0.2220
     23 N2         14.9832   13.8039    4.0717 N.ar    1  <0>        -0.1983
     24 N3         13.6711   12.1039    3.1250 N.pl3   1  <0>        -0.2836
     25 N4         16.3511   15.3971    4.9523 N.am    1  <0>        -0.2546
     26 O1         17.6026   16.9879    5.8101 O.2     1  <0>        -0.2696
     27 F1          8.3944   13.8326    3.5614 F       1  <0>        -0.2052
     28 Cl1        20.3647   14.9436    6.7368 Cl      1  <0>        -0.0829
     29 Cl2        19.4286   17.3965    1.8650 Cl      1  <0>        -0.0829
     30 H1          8.5564   11.0142    2.2417 H       1  <0>         0.0278
     31 H2          8.2185   12.6190    1.5091 H       1  <0>         0.0278
     32 H3          9.4277   11.5244    0.7561 H       1  <0>         0.0278
     33 H4         15.4102   16.7136    6.3412 H       1  <0>         0.0433
     34 H5         14.3644   16.1696    4.9860 H       1  <0>         0.0433
     35 H6         14.7596   15.0394    6.3251 H       1  <0>         0.0433
     36 H7         23.2519   18.3394    4.6496 H       1  <0>         0.0618
     37 H8         22.6468   16.6713    6.4147 H       1  <0>         0.0632
     38 H9         21.8308   18.5435    2.5780 H       1  <0>         0.0632
     39 H10        12.6630   14.0473    4.8580 H       1  <0>         0.0637
     40 H11        10.3219   14.7726    4.9633 H       1  <0>         0.0647
     41 H12        11.6657   11.1716    1.8652 H       1  <0>         0.0640
     42 H13        19.3035   14.1332    2.8851 H       1  <0>         0.0633
     43 H14        17.8177   12.3531    1.9398 H       1  <0>         0.0838
     44 H15        13.7211   11.1335    2.8886 H       1  <0>         0.1550
@<TRIPOS>BOND
     1     1    11    1
     2     2    25    1
     3     3     4   ar
     4     3     5   ar
     5     4    14   ar
     6     5    15   ar
     7     6     7   ar
     8     6    12   ar
     9     7    13   ar
    10     8    11   ar
    11     8    12   ar
    12     9    16    1
    13     9    17    2
    14    10    16   ar
    15    10    22   ar
    16    11    13   ar
    17    12    24    1
    18    13    27    1
    19    14    18   ar
    20    14    28    1
    21    15    18   ar
    22    15    29    1
    23    16    19   ar
    24    17    18    1
    25    17    20    1
    26    19    23   ar
    27    19    25    1
    28    20    25   am
    29    20    26    2
    30    21    22   ar
    31    21    23   ar
    32    21    24    1
    33     1    30    1
    34     1    31    1
    35     1    32    1
    36     2    33    1
    37     2    34    1
    38     2    35    1
    39     3    36    1
    40     4    37    1
    41     5    38    1
    42     6    39    1
    43     7    40    1
    44     8    41    1
    45     9    42    1
    46    10    43    1
    47    24    44    1
@<TRIPOS>SUBSTRUCTURE
     1 <0>         1 TEMP              0 ****  ****    0 ROOT

