
##########                                Name:        JIN_600_2HZI
##########                    Molecular_Weight:              429.28
##########                DOCK_Rotatable_Bonds:                   3
##########                       Formal_Charge:        -9.99868e-05
##########                     HBond_Acceptors:                   8
##########                        HBond_Donors:                   1
##########                         Heavy_Atoms:                  29
##########                            HA_RMSDs:               0.276
##########                            HA_RMSDh:               0.276
##########                            HA_RMSDm:               0.276
##########                          Grid_Score:          -66.482292
##########                     Grid_vdw_energy:          -63.525528
##########                      Grid_es_energy:           -2.956763
##########           Internal_energy_repulsive:           11.235259

@<TRIPOS>MOLECULE
JIN_600_2HZI
 44 47 1 0 0
SMALL
USER_CHARGES


@<TRIPOS>ATOM
      1 C1          9.1035   12.0213    1.8857 C.3     1  <0>        -0.0369
      2 C2         15.2605   16.0752    5.5335 C.3     1  <0>         0.0100
      3 C3         22.5610   17.7777    4.7157 C.ar    1  <0>        -0.0590
      4 C4         22.1982   16.7814    5.6581 C.ar    1  <0>        -0.0427
      5 C5         21.7437   18.0207    3.5745 C.ar    1  <0>        -0.0427
      6 C6         12.1808   13.6527    4.2721 C.ar    1  <0>        -0.0377
      7 C7         10.8405   14.0422    4.4473 C.ar    1  <0>        -0.0244
      8 C8         11.5627   12.1513    2.5405 C.ar    1  <0>        -0.0348
      9 C9         18.6705   14.5729    3.5232 C.2     1  <0>        -0.0370
     10 C10        17.2371   12.8136    2.6063 C.ar    1  <0>         0.0416
     11 C11        10.2286   12.6044    2.6986 C.ar    1  <0>        -0.0135
     12 C12        12.6019   12.7412    3.2885 C.ar    1  <0>         0.0340
     13 C13         9.8508   13.5152    3.6563 C.ar    1  <0>         0.1264
     14 C14        20.9856   16.0917    5.4939 C.ar    1  <0>         0.0502
     15 C15        20.5455   17.2910    3.4591 C.ar    1  <0>         0.0502
     16 C16        17.4356   13.9499    3.4109 C.ar    1  <0>         0.0343
     17 C17        18.8187   15.7170    4.3084 C.2     1  <0>         0.0479
     18 C18        20.1788   16.3225    4.4098 C.ar    1  <0>         0.0237
     19 C19        16.3741   14.5050    4.0744 C.ar    1  <0>         0.1398
     20 C20        17.6846   16.1708    4.9960 C.2     1  <0>         0.2524
     21 C21        15.0243   12.8704    3.2017 C.ar    1  <0>         0.2212
     22 N1         15.9987   12.2839    2.5488 N.ar    1  <0>        -0.2220
     23 N2         15.1449   13.9584    3.9796 N.ar    1  <0>        -0.1983
     24 N3         13.8499   12.2440    3.0352 N.pl3   1  <0>        -0.2836
     25 N4         16.4969   15.5625    4.8651 N.am    1  <0>        -0.2546
     26 O1         17.7337   17.1651    5.7220 O.2     1  <0>        -0.2696
     27 F1          8.5906   13.8732    3.8760 F       1  <0>        -0.2052
     28 Cl1        20.5478   14.8312    6.6854 Cl      1  <0>        -0.0829
     29 Cl2        19.6161   17.6795    2.0327 Cl      1  <0>        -0.0829
     30 H1          8.7036   11.1328    2.3964 H       1  <0>         0.0278
     31 H2          8.3055   12.7701    1.7741 H       1  <0>         0.0278
     32 H3          9.4793   11.7348    0.8923 H       1  <0>         0.0278
     33 H4         15.5132   16.9483    6.1531 H       1  <0>         0.0433
     34 H5         14.5255   16.3684    4.7694 H       1  <0>         0.0433
     35 H6         14.8334   15.2859    6.1695 H       1  <0>         0.0433
     36 H7         23.4616   18.3550    4.8642 H       1  <0>         0.0618
     37 H8         22.8466   16.5559    6.4918 H       1  <0>         0.0632
     38 H9         22.0335   18.7405    2.8234 H       1  <0>         0.0632
     39 H10        12.9262   14.0767    4.9286 H       1  <0>         0.0637
     40 H11        10.5881   14.7626    5.2113 H       1  <0>         0.0647
     41 H12        11.7831   11.3536    1.8465 H       1  <0>         0.0640
     42 H13        19.5238   14.1689    2.9987 H       1  <0>         0.0633
     43 H14        18.0538   12.3776    2.0500 H       1  <0>         0.0838
     44 H15        13.8921   11.3078    2.6865 H       1  <0>         0.1550
@<TRIPOS>BOND
     1     1    11    1
     2     2    25    1
     3     3     4   ar
     4     3     5   ar
     5     4    14   ar
     6     5    15   ar
     7     6     7   ar
     8     6    12   ar
     9     7    13   ar
    10     8    11   ar
    11     8    12   ar
    12     9    16    1
    13     9    17    2
    14    10    16   ar
    15    10    22   ar
    16    11    13   ar
    17    12    24    1
    18    13    27    1
    19    14    18   ar
    20    14    28    1
    21    15    18   ar
    22    15    29    1
    23    16    19   ar
    24    17    18    1
    25    17    20    1
    26    19    23   ar
    27    19    25    1
    28    20    25   am
    29    20    26    2
    30    21    22   ar
    31    21    23   ar
    32    21    24    1
    33     1    30    1
    34     1    31    1
    35     1    32    1
    36     2    33    1
    37     2    34    1
    38     2    35    1
    39     3    36    1
    40     4    37    1
    41     5    38    1
    42     6    39    1
    43     7    40    1
    44     8    41    1
    45     9    42    1
    46    10    43    1
    47    24    44    1
@<TRIPOS>SUBSTRUCTURE
     1 <0>         1 TEMP              0 ****  ****    0 ROOT

