
##########                                Name:      PU2_A1224_1UYG
##########                    Molecular_Weight:             303.296
##########                DOCK_Rotatable_Bonds:                   4
##########                       Formal_Charge:          8.9407e-08
##########                     HBond_Acceptors:                   8
##########                        HBond_Donors:                   3
##########                         Heavy_Atoms:                  22
##########                            HA_RMSDs:               0.533
##########                            HA_RMSDh:               0.533
##########                            HA_RMSDm:               0.533
##########                          Grid_Score:          -49.360752
##########                     Grid_vdw_energy:          -48.343666
##########                      Grid_es_energy:           -1.017087
##########           Internal_energy_repulsive:            9.572424

@<TRIPOS>MOLECULE
PU2_A1224_1UYG
 36 38 1 0 0
SMALL
USER_CHARGES


@<TRIPOS>ATOM
      1 C1          5.0901   16.0734   25.7181 C.3     1  <0>         0.0430
      2 C2          7.6683   10.1856   22.6671 C.3     1  <0>         0.0430
      3 C3          6.2303   13.6896   24.4293 C.ar    1  <0>        -0.0292
      4 C4          6.7053   12.5678   23.7595 C.ar    1  <0>        -0.0290
      5 C5          3.9842   12.7216   24.5029 C.ar    1  <0>        -0.0257
      6 C6          3.5325   10.4947   23.4633 C.3     1  <0>         0.0311
      7 C7          4.8741   13.7563   24.7894 C.ar    1  <0>         0.0762
      8 C8          5.8086   11.5540   23.4800 C.ar    1  <0>         0.0795
      9 C9          4.4682   11.6292   23.8222 C.ar    1  <0>        -0.0079
     10 C10         2.1778   10.6273   24.0849 C.2     1  <0>         0.1063
     11 C11         0.1554   11.0909   24.5282 C.ar    1  <0>         0.1172
     12 C12        -1.1939   11.3906   24.5698 C.ar    1  <0>         0.1458
     13 C13         0.7287   10.5133   25.6020 C.ar    1  <0>         0.1832
     14 C14        -1.2005   10.6159   26.6879 C.ar    1  <0>         0.3128
     15 N1         -1.9043   11.9866   23.4879 N.pl3   1  <0>        -0.3415
     16 N2          1.0595   11.1775   23.5551 N.pl3   1  <0>        -0.2970
     17 N3          1.9701   10.2404   25.3519 N.2     1  <0>        -0.2151
     18 N4         -1.8676   11.1726   25.6844 N.ar    1  <0>        -0.1854
     19 N5          0.0664   10.2614   26.7091 N.ar    1  <0>        -0.1808
     20 O1          4.3420   14.8695   25.5038 O.3     1  <0>        -0.3479
     21 O2          6.2511   10.4128   22.8169 O.3     1  <0>        -0.3476
     22 F1         -2.0174   10.3501   28.0469 F       1  <0>        -0.1610
     23 H1          4.4799   16.7880   26.2900 H       1  <0>         0.0529
     24 H2          6.0058   15.8405   26.2813 H       1  <0>         0.0529
     25 H3          5.3588   16.5156   24.7474 H       1  <0>         0.0529
     26 H4          7.8337    9.2441   22.1228 H       1  <0>         0.0529
     27 H5          8.1154   11.0180   22.1037 H       1  <0>         0.0529
     28 H6          8.1363   10.1217   23.6604 H       1  <0>         0.0529
     29 H7          6.8983   14.5030   24.6707 H       1  <0>         0.0644
     30 H8          7.7420   12.4911   23.4669 H       1  <0>         0.0644
     31 H9          2.9490   12.7764   24.8057 H       1  <0>         0.0647
     32 H10         3.4099   10.4825   22.3702 H       1  <0>         0.0390
     33 H11         3.9817    9.5540   23.8144 H       1  <0>         0.0390
     34 H12        -2.8515   12.1531   23.7620 H       1  <0>         0.1438
     35 H13        -1.4712   12.8537   23.2424 H       1  <0>         0.1438
     36 H14         0.9399   11.5619   22.6397 H       1  <0>         0.1535
@<TRIPOS>BOND
     1     1    20    1
     2     2    21    1
     3     3     4   ar
     4     3     7   ar
     5     4     8   ar
     6     5     7   ar
     7     5     9   ar
     8     6     9    1
     9     6    10    1
    10     7    20    1
    11     8     9   ar
    12     8    21    1
    13    10    16    1
    14    10    17    2
    15    11    12   ar
    16    11    13   ar
    17    11    16    1
    18    12    15    1
    19    12    18   ar
    20    13    17    1
    21    13    19   ar
    22    14    18   ar
    23    14    19   ar
    24    14    22    1
    25     1    23    1
    26     1    24    1
    27     1    25    1
    28     2    26    1
    29     2    27    1
    30     2    28    1
    31     3    29    1
    32     4    30    1
    33     5    31    1
    34     6    32    1
    35     6    33    1
    36    15    34    1
    37    15    35    1
    38    16    36    1
@<TRIPOS>SUBSTRUCTURE
     1 <0>         1 TEMP              0 ****  ****    0 ROOT

