
##########                                Name:      PU2_A1224_1UYG
##########                    Molecular_Weight:             303.296
##########                DOCK_Rotatable_Bonds:                   4
##########                       Formal_Charge:          8.9407e-08
##########                     HBond_Acceptors:                   8
##########                        HBond_Donors:                   3
##########                         Heavy_Atoms:                  22
##########                            HA_RMSDs:               0.623
##########                            HA_RMSDh:               0.623
##########                            HA_RMSDm:               0.623
##########                          Grid_Score:          -50.620262
##########                     Grid_vdw_energy:          -49.932404
##########                      Grid_es_energy:           -0.687857
##########           Internal_energy_repulsive:            9.582674

@<TRIPOS>MOLECULE
PU2_A1224_1UYG
 36 38 1 0 0
SMALL
USER_CHARGES


@<TRIPOS>ATOM
      1 C1          5.3289   16.0011   25.4712 C.3     1  <0>         0.0430
      2 C2          7.9828    9.8791   23.0758 C.3     1  <0>         0.0430
      3 C3          6.4704   13.6298   24.1435 C.ar    1  <0>        -0.0292
      4 C4          6.9777   12.4235   23.6745 C.ar    1  <0>        -0.0290
      5 C5          4.2170   12.6790   24.2165 C.ar    1  <0>        -0.0257
      6 C6          3.8142   10.3240   23.4846 C.3     1  <0>         0.0311
      7 C7          5.0950   13.7458   24.4049 C.ar    1  <0>         0.0762
      8 C8          6.0926   11.3783   23.4895 C.ar    1  <0>         0.0795
      9 C9          4.7341   11.5001   23.7329 C.ar    1  <0>        -0.0079
     10 C10         2.4448   10.5141   24.0572 C.2     1  <0>         0.1063
     11 C11         0.4297   11.0647   24.4288 C.ar    1  <0>         0.1172
     12 C12        -0.9058   11.4232   24.4227 C.ar    1  <0>         0.1458
     13 C13         0.9376   10.4594   25.5201 C.ar    1  <0>         0.1832
     14 C14        -1.0235   10.6434   26.5357 C.ar    1  <0>         0.3128
     15 N1         -1.5496   12.0528   23.3184 N.pl3   1  <0>        -0.3415
     16 N2          1.3717   11.1143   23.4896 N.pl3   1  <0>        -0.2970
     17 N3          2.1742   10.1331   25.3141 N.2     1  <0>        -0.2151
     18 N4         -1.6286   11.2318   25.5111 N.ar    1  <0>        -0.1854
     19 N5          0.2251   10.2336   26.6013 N.ar    1  <0>        -0.1808
     20 O1          4.5279   14.9500   24.9157 O.3     1  <0>        -0.3479
     21 O2          6.5669   10.1537   23.0279 O.3     1  <0>        -0.3476
     22 F1         -1.9003   10.4099   27.8629 F       1  <0>        -0.1610
     23 H1          4.6778   16.8251   25.7985 H       1  <0>         0.0529
     24 H2          5.8931   15.6155   26.3331 H       1  <0>         0.0529
     25 H3          6.0306   16.3694   24.7083 H       1  <0>         0.0529
     26 H4          8.1756    8.8734   22.6740 H       1  <0>         0.0529
     27 H5          8.5213   10.6244   22.4720 H       1  <0>         0.0529
     28 H6          8.3310    9.9303   24.1179 H       1  <0>         0.0529
     29 H7          7.1282   14.4708   24.3056 H       1  <0>         0.0644
     30 H8          8.0300   12.3068   23.4614 H       1  <0>         0.0644
     31 H9          3.1654   12.7754   24.4428 H       1  <0>         0.0647
     32 H10         3.7166   10.1869   22.3976 H       1  <0>         0.0390
     33 H11         4.2611    9.4332   23.9500 H       1  <0>         0.0390
     34 H12        -2.4979   12.2599   23.5586 H       1  <0>         0.1438
     35 H13        -1.0702   12.9008   23.0926 H       1  <0>         0.1438
     36 H14         1.3025   11.5062   22.5722 H       1  <0>         0.1535
@<TRIPOS>BOND
     1     1    20    1
     2     2    21    1
     3     3     4   ar
     4     3     7   ar
     5     4     8   ar
     6     5     7   ar
     7     5     9   ar
     8     6     9    1
     9     6    10    1
    10     7    20    1
    11     8     9   ar
    12     8    21    1
    13    10    16    1
    14    10    17    2
    15    11    12   ar
    16    11    13   ar
    17    11    16    1
    18    12    15    1
    19    12    18   ar
    20    13    17    1
    21    13    19   ar
    22    14    18   ar
    23    14    19   ar
    24    14    22    1
    25     1    23    1
    26     1    24    1
    27     1    25    1
    28     2    26    1
    29     2    27    1
    30     2    28    1
    31     3    29    1
    32     4    30    1
    33     5    31    1
    34     6    32    1
    35     6    33    1
    36    15    34    1
    37    15    35    1
    38    16    36    1
@<TRIPOS>SUBSTRUCTURE
     1 <0>         1 TEMP              0 ****  ****    0 ROOT

