
##########                                Name:      PU2_A1224_1UYG
##########                    Molecular_Weight:             303.296
##########                DOCK_Rotatable_Bonds:                   4
##########                       Formal_Charge:          8.9407e-08
##########                     HBond_Acceptors:                   8
##########                        HBond_Donors:                   3
##########                         Heavy_Atoms:                  22
##########                            HA_RMSDs:               0.481
##########                            HA_RMSDh:               0.481
##########                            HA_RMSDm:               0.481
##########                          Grid_Score:          -50.199032
##########                     Grid_vdw_energy:          -49.162895
##########                      Grid_es_energy:           -1.036137
##########           Internal_energy_repulsive:            9.497136

@<TRIPOS>MOLECULE
PU2_A1224_1UYG
 36 38 1 0 0
SMALL
USER_CHARGES


@<TRIPOS>ATOM
      1 C1          5.2665   16.0829   25.4986 C.3     1  <0>         0.0430
      2 C2          7.7178   10.1174   22.5240 C.3     1  <0>         0.0430
      3 C3          6.3445   13.6423   24.2787 C.ar    1  <0>        -0.0292
      4 C4          6.8089   12.4701   23.6933 C.ar    1  <0>        -0.0290
      5 C5          4.0705   12.7404   24.3325 C.ar    1  <0>        -0.0257
      6 C6          3.5897   10.4678   23.4118 C.3     1  <0>         0.0311
      7 C7          4.9798   13.7665   24.5875 C.ar    1  <0>         0.0762
      8 C8          5.8933   11.4654   23.4437 C.ar    1  <0>         0.0795
      9 C9          4.5451   11.5966   23.7347 C.ar    1  <0>        -0.0079
     10 C10         2.2576   10.6127   24.0779 C.2     1  <0>         0.1063
     11 C11         0.2672   11.1245   24.6053 C.ar    1  <0>         0.1172
     12 C12        -1.0675   11.4724   24.7029 C.ar    1  <0>         0.1458
     13 C13         0.8441   10.4588   25.6248 C.ar    1  <0>         0.1832
     14 C14        -1.0512   10.5665   26.7683 C.ar    1  <0>         0.3128
     15 N1         -1.7809   12.1621   23.6803 N.pl3   1  <0>        -0.3415
     16 N2          1.1490   11.2375   23.6146 N.pl3   1  <0>        -0.2970
     17 N3          2.0668   10.1550   25.3238 N.2     1  <0>        -0.2151
     18 N4         -1.7208   11.2105   25.8202 N.ar    1  <0>        -0.1854
     19 N5          0.2006   10.1631   26.7322 N.ar    1  <0>        -0.1808
     20 O1          4.4566   14.9344   25.2160 O.3     1  <0>        -0.3479
     21 O2          6.3245   10.2750   22.8650 O.3     1  <0>        -0.3476
     22 F1         -1.8433   10.2471   28.1304 F       1  <0>        -0.1610
     23 H1          4.6514   16.8559   25.9827 H       1  <0>         0.0529
     24 H2          6.0888   15.7953   26.1701 H       1  <0>         0.0529
     25 H3          5.6809   16.4791   24.5598 H       1  <0>         0.0529
     26 H4          7.8771    9.1234   22.0806 H       1  <0>         0.0529
     27 H5          8.0078   10.8927   21.7995 H       1  <0>         0.0529
     28 H6          8.3308   10.2161   23.4320 H       1  <0>         0.0529
     29 H7          7.0272   14.4508   24.4942 H       1  <0>         0.0644
     30 H8          7.8521   12.3484   23.4415 H       1  <0>         0.0644
     31 H9          3.0279   12.8408   24.5957 H       1  <0>         0.0647
     32 H10         3.4304   10.4525   22.3235 H       1  <0>         0.0390
     33 H11         4.0435    9.5251   23.7512 H       1  <0>         0.0390
     34 H12        -2.7134   12.3471   23.9905 H       1  <0>         0.1438
     35 H13        -1.3198   13.0258   23.4770 H       1  <0>         0.1438
     36 H14         1.0217   11.6832   22.7285 H       1  <0>         0.1535
@<TRIPOS>BOND
     1     1    20    1
     2     2    21    1
     3     3     4   ar
     4     3     7   ar
     5     4     8   ar
     6     5     7   ar
     7     5     9   ar
     8     6     9    1
     9     6    10    1
    10     7    20    1
    11     8     9   ar
    12     8    21    1
    13    10    16    1
    14    10    17    2
    15    11    12   ar
    16    11    13   ar
    17    11    16    1
    18    12    15    1
    19    12    18   ar
    20    13    17    1
    21    13    19   ar
    22    14    18   ar
    23    14    19   ar
    24    14    22    1
    25     1    23    1
    26     1    24    1
    27     1    25    1
    28     2    26    1
    29     2    27    1
    30     2    28    1
    31     3    29    1
    32     4    30    1
    33     5    31    1
    34     6    32    1
    35     6    33    1
    36    15    34    1
    37    15    35    1
    38    16    36    1
@<TRIPOS>SUBSTRUCTURE
     1 <0>         1 TEMP              0 ****  ****    0 ROOT

