
##########                                Name:      PU2_A1224_1UYG
##########                    Molecular_Weight:             303.296
##########                DOCK_Rotatable_Bonds:                   4
##########                       Formal_Charge:          8.9407e-08
##########                     HBond_Acceptors:                   8
##########                        HBond_Donors:                   3
##########                         Heavy_Atoms:                  22
##########                            HA_RMSDs:               0.355
##########                            HA_RMSDh:               0.355
##########                            HA_RMSDm:               0.355
##########                          Grid_Score:          -48.610081
##########                     Grid_vdw_energy:          -47.452415
##########                      Grid_es_energy:           -1.157664
##########           Internal_energy_repulsive:            8.617677

@<TRIPOS>MOLECULE
PU2_A1224_1UYG
 36 38 1 0 0
SMALL
USER_CHARGES


@<TRIPOS>ATOM
      1 C1          5.3457   15.9391   25.3656 C.3     1  <0>         0.0430
      2 C2          7.8448    9.6369   23.1476 C.3     1  <0>         0.0430
      3 C3          6.4801   13.4954   24.2028 C.ar    1  <0>        -0.0292
      4 C4          6.9694   12.3248   23.6346 C.ar    1  <0>        -0.0290
      5 C5          4.2161   12.5674   24.2184 C.ar    1  <0>        -0.0257
      6 C6          3.7796   10.2833   23.3041 C.3     1  <0>         0.0311
      7 C7          5.1083   13.6057   24.4841 C.ar    1  <0>         0.0762
      8 C8          6.0705   11.3078   23.3741 C.ar    1  <0>         0.0795
      9 C9          4.7155   11.4253   23.6379 C.ar    1  <0>        -0.0079
     10 C10         2.4793   10.3506   24.0415 C.2     1  <0>         0.1063
     11 C11         0.5023   10.7662   24.6897 C.ar    1  <0>         0.1172
     12 C12        -0.8368   11.0609   24.8693 C.ar    1  <0>         0.1458
     13 C13         1.1529   10.0781   25.6481 C.ar    1  <0>         0.1832
     14 C14        -0.6839   10.0669   26.8880 C.ar    1  <0>         0.3128
     15 N1         -1.6247   11.7682   23.9157 N.pl3   1  <0>        -0.3415
     16 N2          1.3278   10.9543   23.6626 N.pl3   1  <0>        -0.2970
     17 N3          2.3683    9.8323   25.2732 N.2     1  <0>        -0.2151
     18 N4         -1.4227   10.7270   26.0046 N.ar    1  <0>        -0.1854
     19 N5          0.5775    9.7112   26.7715 N.ar    1  <0>        -0.1808
     20 O1          4.5595   14.7715   25.0943 O.3     1  <0>        -0.3479
     21 O2          6.5267   10.1188   22.8121 O.3     1  <0>        -0.3476
     22 F1         -1.3937    9.6598   28.2719 F       1  <0>        -0.1610
     23 H1          4.7134   16.7064   25.8361 H       1  <0>         0.0529
     24 H2          6.1698   15.6763   26.0450 H       1  <0>         0.0529
     25 H3          5.7574   16.3307   24.4236 H       1  <0>         0.0529
     26 H4          8.0367    8.6927   22.6168 H       1  <0>         0.0529
     27 H5          8.5951   10.3840   22.8495 H       1  <0>         0.0529
     28 H6          7.9077    9.4666   24.2325 H       1  <0>         0.0529
     29 H7          7.1492   14.3132   24.4261 H       1  <0>         0.0644
     30 H8          8.0186   12.2136   23.4041 H       1  <0>         0.0644
     31 H9          3.1674   12.6574   24.4606 H       1  <0>         0.0647
     32 H10         3.5658   10.3176   22.2256 H       1  <0>         0.0390
     33 H11         4.2785    9.3402   23.5715 H       1  <0>         0.0390
     34 H12        -2.5459   11.9055   24.2799 H       1  <0>         0.1438
     35 H13        -1.2044   12.6561   23.7292 H       1  <0>         0.1438
     36 H14         1.1400   11.4333   22.8051 H       1  <0>         0.1535
@<TRIPOS>BOND
     1     1    20    1
     2     2    21    1
     3     3     4   ar
     4     3     7   ar
     5     4     8   ar
     6     5     7   ar
     7     5     9   ar
     8     6     9    1
     9     6    10    1
    10     7    20    1
    11     8     9   ar
    12     8    21    1
    13    10    16    1
    14    10    17    2
    15    11    12   ar
    16    11    13   ar
    17    11    16    1
    18    12    15    1
    19    12    18   ar
    20    13    17    1
    21    13    19   ar
    22    14    18   ar
    23    14    19   ar
    24    14    22    1
    25     1    23    1
    26     1    24    1
    27     1    25    1
    28     2    26    1
    29     2    27    1
    30     2    28    1
    31     3    29    1
    32     4    30    1
    33     5    31    1
    34     6    32    1
    35     6    33    1
    36    15    34    1
    37    15    35    1
    38    16    36    1
@<TRIPOS>SUBSTRUCTURE
     1 <0>         1 TEMP              0 ****  ****    0 ROOT

