
##########                                Name:      PU2_A1224_1UYG
##########                    Molecular_Weight:             303.296
##########                DOCK_Rotatable_Bonds:                   4
##########                       Formal_Charge:          8.9407e-08
##########                     HBond_Acceptors:                   8
##########                        HBond_Donors:                   3
##########                         Heavy_Atoms:                  22
##########                            HA_RMSDs:               0.327
##########                            HA_RMSDh:               0.327
##########                            HA_RMSDm:               0.327
##########                          Grid_Score:          -49.557484
##########                     Grid_vdw_energy:          -48.277859
##########                      Grid_es_energy:           -1.279626
##########           Internal_energy_repulsive:            9.266538

@<TRIPOS>MOLECULE
PU2_A1224_1UYG
 36 38 1 0 0
SMALL
USER_CHARGES


@<TRIPOS>ATOM
      1 C1          5.0985   15.9614   26.0803 C.3     1  <0>         0.0430
      2 C2          7.9626   10.4051   22.6670 C.3     1  <0>         0.0430
      3 C3          6.3532   13.8233   24.4402 C.ar    1  <0>        -0.0292
      4 C4          6.9085   12.6709   23.8960 C.ar    1  <0>        -0.0290
      5 C5          4.1448   12.7703   24.4722 C.ar    1  <0>        -0.0257
      6 C6          3.8388   10.4476   23.6032 C.3     1  <0>         0.0311
      7 C7          4.9768   13.8621   24.7179 C.ar    1  <0>         0.0762
      8 C8          6.0685   11.6002   23.6550 C.ar    1  <0>         0.0795
      9 C9          4.7085   11.6466   23.9150 C.ar    1  <0>        -0.0079
     10 C10         2.5137   10.4826   24.2974 C.2     1  <0>         0.1063
     11 C11         0.4975   10.8229   24.8636 C.ar    1  <0>         0.1172
     12 C12        -0.8606   11.0525   24.9873 C.ar    1  <0>         0.1458
     13 C13         1.1528   10.2243   25.8772 C.ar    1  <0>         0.1832
     14 C14        -0.7197   10.1786   27.0617 C.ar    1  <0>         0.3128
     15 N1         -1.6540   11.6629   23.9734 N.pl3   1  <0>        -0.3415
     16 N2          1.3444   11.0007   23.8522 N.pl3   1  <0>        -0.2970
     17 N3          2.3910   10.0260   25.5522 N.2     1  <0>        -0.2151
     18 N4         -1.4640   10.7483   26.1218 N.ar    1  <0>        -0.1854
     19 N5          0.5620    9.8872   27.0020 N.ar    1  <0>        -0.1808
     20 O1          4.3622   15.0072   25.3042 O.3     1  <0>        -0.3479
     21 O2          6.5918   10.4276   23.1173 O.3     1  <0>        -0.3476
     22 F1         -1.4510    9.8080   28.4447 F       1  <0>        -0.1610
     23 H1          4.4197   16.7542   26.4278 H       1  <0>         0.0529
     24 H2          5.5490   15.4582   26.9485 H       1  <0>         0.0529
     25 H3          5.8920   16.4041   25.4602 H       1  <0>         0.0529
     26 H4          8.2040    9.4061   22.2750 H       1  <0>         0.0529
     27 H5          8.0997   11.1535   21.8725 H       1  <0>         0.0529
     28 H6          8.6293   10.6389   23.5101 H       1  <0>         0.0529
     29 H7          6.9749   14.6816   24.6478 H       1  <0>         0.0644
     30 H8          7.9628   12.6141   23.6687 H       1  <0>         0.0644
     31 H9          3.0922   12.8062   24.7115 H       1  <0>         0.0647
     32 H10         3.6585   10.4261   22.5183 H       1  <0>         0.0390
     33 H11         4.3728    9.5419   23.9263 H       1  <0>         0.0390
     34 H12        -2.5925   11.7686   24.3023 H       1  <0>         0.1438
     35 H13        -1.2760   12.5613   23.7502 H       1  <0>         0.1438
     36 H14         1.1590   11.4217   22.9643 H       1  <0>         0.1535
@<TRIPOS>BOND
     1     1    20    1
     2     2    21    1
     3     3     4   ar
     4     3     7   ar
     5     4     8   ar
     6     5     7   ar
     7     5     9   ar
     8     6     9    1
     9     6    10    1
    10     7    20    1
    11     8     9   ar
    12     8    21    1
    13    10    16    1
    14    10    17    2
    15    11    12   ar
    16    11    13   ar
    17    11    16    1
    18    12    15    1
    19    12    18   ar
    20    13    17    1
    21    13    19   ar
    22    14    18   ar
    23    14    19   ar
    24    14    22    1
    25     1    23    1
    26     1    24    1
    27     1    25    1
    28     2    26    1
    29     2    27    1
    30     2    28    1
    31     3    29    1
    32     4    30    1
    33     5    31    1
    34     6    32    1
    35     6    33    1
    36    15    34    1
    37    15    35    1
    38    16    36    1
@<TRIPOS>SUBSTRUCTURE
     1 <0>         1 TEMP              0 ****  ****    0 ROOT

