
##########                                Name:      PU2_A1224_1UYG
##########                    Molecular_Weight:             303.296
##########                DOCK_Rotatable_Bonds:                   4
##########                       Formal_Charge:          8.9407e-08
##########                     HBond_Acceptors:                   8
##########                        HBond_Donors:                   3
##########                         Heavy_Atoms:                  22
##########                            HA_RMSDs:               0.522
##########                            HA_RMSDh:               0.522
##########                            HA_RMSDm:               0.522
##########                          Grid_Score:          -50.191986
##########                     Grid_vdw_energy:          -49.154373
##########                      Grid_es_energy:           -1.037611
##########           Internal_energy_repulsive:            9.512368

@<TRIPOS>MOLECULE
PU2_A1224_1UYG
 36 38 1 0 0
SMALL
USER_CHARGES


@<TRIPOS>ATOM
      1 C1          4.9257   16.0169   25.9586 C.3     1  <0>         0.0430
      2 C2          7.8687   10.3021   22.9341 C.3     1  <0>         0.0430
      3 C3          6.1931   13.8153   24.4307 C.ar    1  <0>        -0.0292
      4 C4          6.7563   12.6510   23.9210 C.ar    1  <0>        -0.0290
      5 C5          3.9856   12.7602   24.4611 C.ar    1  <0>        -0.0257
      6 C6          3.6930   10.4169   23.6445 C.3     1  <0>         0.0311
      7 C7          4.8133   13.8587   24.6907 C.ar    1  <0>         0.0762
      8 C8          5.9206   11.5736   23.6956 C.ar    1  <0>         0.0795
      9 C9          4.5575   11.6243   23.9380 C.ar    1  <0>        -0.0079
     10 C10         2.3078   10.5335   24.1984 C.2     1  <0>         0.1063
     11 C11         0.2642   10.9846   24.5476 C.ar    1  <0>         0.1172
     12 C12        -1.0861   11.2820   24.5266 C.ar    1  <0>         0.1458
     13 C13         0.7827   10.3825   25.6357 C.ar    1  <0>         0.1832
     14 C14        -1.2001   10.4577   26.6228 C.ar    1  <0>         0.3128
     15 N1         -1.7411   11.9026   23.4238 N.pl3   1  <0>        -0.3415
     16 N2          1.2171   11.0949   23.6247 N.pl3   1  <0>        -0.2970
     17 N3          2.0359   10.1167   25.4436 N.2     1  <0>        -0.2151
     18 N4         -1.8158   11.0372   25.5996 N.ar    1  <0>        -0.1854
     19 N5          0.0648   10.1039   26.7010 N.ar    1  <0>        -0.1808
     20 O1          4.1904   15.0167   25.2418 O.3     1  <0>        -0.3479
     21 O2          6.4517   10.3892   23.1926 O.3     1  <0>        -0.3476
     22 F1         -2.0853   10.1592   27.9313 F       1  <0>        -0.1610
     23 H1          4.2398   16.8115   26.2879 H       1  <0>         0.0529
     24 H2          5.4056   15.5601   26.8366 H       1  <0>         0.0529
     25 H3          5.6960   16.4469   25.3015 H       1  <0>         0.0529
     26 H4          8.1099    9.3027   22.5430 H       1  <0>         0.0529
     27 H5          8.1537   11.0641   22.1937 H       1  <0>         0.0529
     28 H6          8.4230   10.4734   23.8687 H       1  <0>         0.0529
     29 H7          6.8113   14.6792   24.6251 H       1  <0>         0.0644
     30 H8          7.8133   12.5903   23.7080 H       1  <0>         0.0644
     31 H9          2.9302   12.8003   24.6868 H       1  <0>         0.0647
     32 H10         3.6187   10.3039   22.5529 H       1  <0>         0.0390
     33 H11         4.1705    9.5342   24.0948 H       1  <0>         0.0390
     34 H12        -2.7015   12.0617   23.6526 H       1  <0>         0.1438
     35 H13        -1.2978   12.7757   23.2213 H       1  <0>         0.1438
     36 H14         1.1440   11.5007   22.7136 H       1  <0>         0.1535
@<TRIPOS>BOND
     1     1    20    1
     2     2    21    1
     3     3     4   ar
     4     3     7   ar
     5     4     8   ar
     6     5     7   ar
     7     5     9   ar
     8     6     9    1
     9     6    10    1
    10     7    20    1
    11     8     9   ar
    12     8    21    1
    13    10    16    1
    14    10    17    2
    15    11    12   ar
    16    11    13   ar
    17    11    16    1
    18    12    15    1
    19    12    18   ar
    20    13    17    1
    21    13    19   ar
    22    14    18   ar
    23    14    19   ar
    24    14    22    1
    25     1    23    1
    26     1    24    1
    27     1    25    1
    28     2    26    1
    29     2    27    1
    30     2    28    1
    31     3    29    1
    32     4    30    1
    33     5    31    1
    34     6    32    1
    35     6    33    1
    36    15    34    1
    37    15    35    1
    38    16    36    1
@<TRIPOS>SUBSTRUCTURE
     1 <0>         1 TEMP              0 ****  ****    0 ROOT

