
##########                                Name:      PU2_A1224_1UYG
##########                    Molecular_Weight:             303.296
##########                DOCK_Rotatable_Bonds:                   4
##########                       Formal_Charge:          8.9407e-08
##########                     HBond_Acceptors:                   8
##########                        HBond_Donors:                   3
##########                         Heavy_Atoms:                  22
##########                            HA_RMSDs:               1.210
##########                            HA_RMSDh:               1.210
##########                            HA_RMSDm:               1.105
##########                          Grid_Score:          -49.003300
##########                     Grid_vdw_energy:          -47.009239
##########                      Grid_es_energy:           -1.994061
##########           Internal_energy_repulsive:            9.513351

@<TRIPOS>MOLECULE
PU2_A1224_1UYG
 36 38 1 0 0
SMALL
USER_CHARGES


@<TRIPOS>ATOM
      1 C1          4.8141   16.2549   25.9119 C.3     1  <0>         0.0430
      2 C2          7.4813   10.4082   22.8917 C.3     1  <0>         0.0430
      3 C3          5.9625   13.9318   24.5390 C.ar    1  <0>        -0.0292
      4 C4          6.4687   12.7966   23.9164 C.ar    1  <0>        -0.0290
      5 C5          3.7126   12.9705   24.5113 C.ar    1  <0>        -0.0257
      6 C6          3.3094   10.7255   23.4908 C.3     1  <0>         0.0311
      7 C7          4.5894   14.0083   24.8253 C.ar    1  <0>         0.0762
      8 C8          5.5848   11.7797   23.6086 C.ar    1  <0>         0.0795
      9 C9          4.2284   11.8644   23.8777 C.ar    1  <0>        -0.0079
     10 C10         2.3633   10.3333   24.5818 C.2     1  <0>         0.1063
     11 C11         0.7393   10.1798   25.9385 C.ar    1  <0>         0.1172
     12 C12        -0.4555   10.1706   26.6347 C.ar    1  <0>         0.1458
     13 C13         1.7237    9.3433   26.3212 C.ar    1  <0>         0.1832
     14 C14         0.4641    8.6272   27.9980 C.ar    1  <0>         0.3128
     15 N1         -1.5667   11.0003   26.3075 N.pl3   1  <0>        -0.3415
     16 N2          1.1267   10.8219   24.8387 N.pl3   1  <0>        -0.2970
     17 N3          2.7302    9.4392   25.5114 N.2     1  <0>        -0.2151
     18 N4         -0.5740    9.3987   27.6995 N.ar    1  <0>        -0.1854
     19 N5          1.6121    8.5462   27.3603 N.ar    1  <0>        -0.1808
     20 O1          4.0238   15.1359   25.4896 O.3     1  <0>        -0.3479
     21 O2          6.0582   10.6253   22.9913 O.3     1  <0>        -0.3476
     22 F1          0.3236    7.6868   29.2946 F       1  <0>        -0.1610
     23 H1          4.1665   16.9991   26.3984 H       1  <0>         0.0529
     24 H2          5.5803   15.9145   26.6239 H       1  <0>         0.0529
     25 H3          5.3022   16.7097   25.0372 H       1  <0>         0.0529
     26 H4          7.6722    9.4538   22.3790 H       1  <0>         0.0529
     27 H5          7.9382   11.2293   22.3197 H       1  <0>         0.0529
     28 H6          7.9187   10.3761   23.9004 H       1  <0>         0.0529
     29 H7          6.6195   14.7481   24.8003 H       1  <0>         0.0644
     30 H8          7.5193   12.7120   23.6808 H       1  <0>         0.0644
     31 H9          2.6629   13.0333   24.7576 H       1  <0>         0.0647
     32 H10         2.7175   11.0418   22.6193 H       1  <0>         0.0390
     33 H11         3.9298    9.8518   23.2427 H       1  <0>         0.0390
     34 H12        -2.2983   10.8564   26.9739 H       1  <0>         0.1438
     35 H13        -1.2834   11.9591   26.3255 H       1  <0>         0.1438
     36 H14         0.6193   11.5097   24.3197 H       1  <0>         0.1535
@<TRIPOS>BOND
     1     1    20    1
     2     2    21    1
     3     3     4   ar
     4     3     7   ar
     5     4     8   ar
     6     5     7   ar
     7     5     9   ar
     8     6     9    1
     9     6    10    1
    10     7    20    1
    11     8     9   ar
    12     8    21    1
    13    10    16    1
    14    10    17    2
    15    11    12   ar
    16    11    13   ar
    17    11    16    1
    18    12    15    1
    19    12    18   ar
    20    13    17    1
    21    13    19   ar
    22    14    18   ar
    23    14    19   ar
    24    14    22    1
    25     1    23    1
    26     1    24    1
    27     1    25    1
    28     2    26    1
    29     2    27    1
    30     2    28    1
    31     3    29    1
    32     4    30    1
    33     5    31    1
    34     6    32    1
    35     6    33    1
    36    15    34    1
    37    15    35    1
    38    16    36    1
@<TRIPOS>SUBSTRUCTURE
     1 <0>         1 TEMP              0 ****  ****    0 ROOT

