
##########                                Name:      PU2_A1224_1UYG
##########                    Molecular_Weight:             303.296
##########                DOCK_Rotatable_Bonds:                   4
##########                       Formal_Charge:          8.9407e-08
##########                     HBond_Acceptors:                   8
##########                        HBond_Donors:                   3
##########                         Heavy_Atoms:                  22
##########                            HA_RMSDs:               0.523
##########                            HA_RMSDh:               0.523
##########                            HA_RMSDm:               0.523
##########                          Grid_Score:          -50.902149
##########                     Grid_vdw_energy:          -49.863964
##########                      Grid_es_energy:           -1.038185
##########           Internal_energy_repulsive:            9.568278

@<TRIPOS>MOLECULE
PU2_A1224_1UYG
 36 38 1 0 0
SMALL
USER_CHARGES


@<TRIPOS>ATOM
      1 C1          5.0093   15.9920   26.0393 C.3     1  <0>         0.0430
      2 C2          7.6502   10.4056   22.5516 C.3     1  <0>         0.0430
      3 C3          6.1099   13.8545   24.3229 C.ar    1  <0>        -0.0292
      4 C4          6.6187   12.7279   23.6870 C.ar    1  <0>        -0.0290
      5 C5          3.9209   12.7795   24.5233 C.ar    1  <0>        -0.0257
      6 C6          3.5493   10.4868   23.6020 C.3     1  <0>         0.0311
      7 C7          4.7654   13.8698   24.7299 C.ar    1  <0>         0.0762
      8 C8          5.7666   11.6584   23.4866 C.ar    1  <0>         0.0795
      9 C9          4.4368   11.6822   23.8747 C.ar    1  <0>        -0.0079
     10 C10         2.1873   10.6116   24.2092 C.2     1  <0>         0.1063
     11 C11         0.1520   11.0463   24.6219 C.ar    1  <0>         0.1172
     12 C12        -1.2037   11.3179   24.6435 C.ar    1  <0>         0.1458
     13 C13         0.7293   10.5194   25.7193 C.ar    1  <0>         0.1832
     14 C14        -1.2099   10.6181   26.7875 C.ar    1  <0>         0.3128
     15 N1         -1.9184   11.8599   23.5364 N.pl3   1  <0>        -0.3415
     16 N2          1.0615   11.1183   23.6526 N.pl3   1  <0>        -0.2970
     17 N3          1.9782   10.2650   25.4876 N.2     1  <0>        -0.2151
     18 N4         -1.8811   11.1246   25.7604 N.ar    1  <0>        -0.1854
     19 N5          0.0641   10.2922   26.8300 N.ar    1  <0>        -0.1808
     20 O1          4.2016   14.9870   25.4129 O.3     1  <0>        -0.3479
     21 O2          6.2443   10.5112   22.8594 O.3     1  <0>        -0.3476
     22 F1         -2.0313   10.3825   28.1494 F       1  <0>        -0.1610
     23 H1          4.3597   16.7505   26.5006 H       1  <0>         0.0529
     24 H2          5.6372   15.5274   26.8138 H       1  <0>         0.0529
     25 H3          5.6512   16.4695   25.2843 H       1  <0>         0.0529
     26 H4          7.8474    9.4406   22.0617 H       1  <0>         0.0529
     27 H5          7.9403   11.2250   21.8774 H       1  <0>         0.0529
     28 H6          8.2348   10.4709   23.4811 H       1  <0>         0.0529
     29 H7          6.7429   14.7108   24.5026 H       1  <0>         0.0644
     30 H8          7.6473   12.6897   23.3598 H       1  <0>         0.0644
     31 H9          2.8954   12.7965   24.8615 H       1  <0>         0.0647
     32 H10         3.4326   10.3861   22.5129 H       1  <0>         0.0390
     33 H11         4.0341    9.5946   24.0249 H       1  <0>         0.0390
     34 H12        -2.8711   12.0153   23.7979 H       1  <0>         0.1438
     35 H13        -1.5022   12.7271   23.2634 H       1  <0>         0.1438
     36 H14         0.9407   11.4677   22.7234 H       1  <0>         0.1535
@<TRIPOS>BOND
     1     1    20    1
     2     2    21    1
     3     3     4   ar
     4     3     7   ar
     5     4     8   ar
     6     5     7   ar
     7     5     9   ar
     8     6     9    1
     9     6    10    1
    10     7    20    1
    11     8     9   ar
    12     8    21    1
    13    10    16    1
    14    10    17    2
    15    11    12   ar
    16    11    13   ar
    17    11    16    1
    18    12    15    1
    19    12    18   ar
    20    13    17    1
    21    13    19   ar
    22    14    18   ar
    23    14    19   ar
    24    14    22    1
    25     1    23    1
    26     1    24    1
    27     1    25    1
    28     2    26    1
    29     2    27    1
    30     2    28    1
    31     3    29    1
    32     4    30    1
    33     5    31    1
    34     6    32    1
    35     6    33    1
    36    15    34    1
    37    15    35    1
    38    16    36    1
@<TRIPOS>SUBSTRUCTURE
     1 <0>         1 TEMP              0 ****  ****    0 ROOT

