
##########                                Name:      PU2_A1224_1UYG
##########                    Molecular_Weight:             303.296
##########                DOCK_Rotatable_Bonds:                   4
##########                       Formal_Charge:          8.9407e-08
##########                     HBond_Acceptors:                   8
##########                        HBond_Donors:                   3
##########                         Heavy_Atoms:                  22
##########                            HA_RMSDs:               0.335
##########                            HA_RMSDh:               0.335
##########                            HA_RMSDm:               0.335
##########                          Grid_Score:          -49.410419
##########                     Grid_vdw_energy:          -47.993362
##########                      Grid_es_energy:           -1.417056
##########           Internal_energy_repulsive:            9.128074

@<TRIPOS>MOLECULE
PU2_A1224_1UYG
 36 38 1 0 0
SMALL
USER_CHARGES


@<TRIPOS>ATOM
      1 C1          5.2549   16.0124   25.9477 C.3     1  <0>         0.0430
      2 C2          8.0636   10.2703   22.8764 C.3     1  <0>         0.0430
      3 C3          6.4611   13.8109   24.4052 C.ar    1  <0>        -0.0292
      4 C4          6.9974   12.6710   23.8177 C.ar    1  <0>        -0.0290
      5 C5          4.2219   12.8282   24.3197 C.ar    1  <0>        -0.0257
      6 C6          3.8722   10.5638   23.3226 C.3     1  <0>         0.0311
      7 C7          5.0787   13.8790   24.6455 C.ar    1  <0>         0.0762
      8 C8          6.1331   11.6411   23.4975 C.ar    1  <0>         0.0795
      9 C9          4.7680   11.7172   23.7210 C.ar    1  <0>        -0.0079
     10 C10         2.5701   10.5453   24.0597 C.2     1  <0>         0.1063
     11 C11         0.5607   10.8021   24.6907 C.ar    1  <0>         0.1172
     12 C12        -0.8010   10.9745   24.8581 C.ar    1  <0>         0.1458
     13 C13         1.2735   10.2357   25.6838 C.ar    1  <0>         0.1832
     14 C14        -0.5558   10.1153   26.9289 C.ar    1  <0>         0.3128
     15 N1         -1.6523   11.5469   23.8692 N.pl3   1  <0>        -0.3415
     16 N2          1.3660   11.0117   23.6517 N.pl3   1  <0>        -0.2970
     17 N3          2.5078   10.0888   25.3190 N.2     1  <0>        -0.2151
     18 N4         -1.3538   10.6494   26.0125 N.ar    1  <0>        -0.1854
     19 N5          0.7345    9.8782   26.8281 N.ar    1  <0>        -0.1808
     20 O1          4.4816   15.0115   25.2729 O.3     1  <0>        -0.3479
     21 O2          6.6367   10.4816   22.9145 O.3     1  <0>        -0.3476
     22 F1         -1.2253    9.7194   28.3360 F       1  <0>        -0.1610
     23 H1          4.5837   16.7848   26.3513 H       1  <0>         0.0529
     24 H2          5.8163   15.5480   26.7717 H       1  <0>         0.0529
     25 H3          5.9582   16.4725   25.2380 H       1  <0>         0.0529
     26 H4          8.2797    9.3108   22.3838 H       1  <0>         0.0529
     27 H5          8.5402   11.0866   22.3138 H       1  <0>         0.0529
     28 H6          8.4590   10.2525   23.9028 H       1  <0>         0.0529
     29 H7          7.1018   14.6374   24.6747 H       1  <0>         0.0644
     30 H8          8.0558   12.5926   23.6177 H       1  <0>         0.0644
     31 H9          3.1642   12.8850   24.5307 H       1  <0>         0.0647
     32 H10         3.6577   10.6502   22.2472 H       1  <0>         0.0390
     33 H11         4.4033    9.6251   23.5387 H       1  <0>         0.0390
     34 H12        -2.5831   11.6140   24.2284 H       1  <0>         0.1438
     35 H13        -1.3202   12.4596   23.6316 H       1  <0>         0.1438
     36 H14         1.1341   11.4212   22.7693 H       1  <0>         0.1535
@<TRIPOS>BOND
     1     1    20    1
     2     2    21    1
     3     3     4   ar
     4     3     7   ar
     5     4     8   ar
     6     5     7   ar
     7     5     9   ar
     8     6     9    1
     9     6    10    1
    10     7    20    1
    11     8     9   ar
    12     8    21    1
    13    10    16    1
    14    10    17    2
    15    11    12   ar
    16    11    13   ar
    17    11    16    1
    18    12    15    1
    19    12    18   ar
    20    13    17    1
    21    13    19   ar
    22    14    18   ar
    23    14    19   ar
    24    14    22    1
    25     1    23    1
    26     1    24    1
    27     1    25    1
    28     2    26    1
    29     2    27    1
    30     2    28    1
    31     3    29    1
    32     4    30    1
    33     5    31    1
    34     6    32    1
    35     6    33    1
    36    15    34    1
    37    15    35    1
    38    16    36    1
@<TRIPOS>SUBSTRUCTURE
     1 <0>         1 TEMP              0 ****  ****    0 ROOT

