
##########                                Name:          C4F_1_3C4F
##########                    Molecular_Weight:             238.289
##########                DOCK_Rotatable_Bonds:                   3
##########                       Formal_Charge:        -0.000100017
##########                     HBond_Acceptors:                   3
##########                        HBond_Donors:                   1
##########                         Heavy_Atoms:                  18
##########                            HA_RMSDs:               0.226
##########                            HA_RMSDh:               0.226
##########                            HA_RMSDm:               0.226
##########                          Grid_Score:          -47.370296
##########                     Grid_vdw_energy:          -47.021309
##########                      Grid_es_energy:           -0.348987
##########           Internal_energy_repulsive:            5.034342

@<TRIPOS>MOLECULE
C4F_1_3C4F
 32 34 1 0 0
SMALL
USER_CHARGES


@<TRIPOS>ATOM
      1 C1          5.3078    2.1156   12.9767 C.3     1  <0>         0.0430
      2 C2          4.0532    5.0843   15.7020 C.ar    1  <0>        -0.0591
      3 C3          8.3193    3.5734   22.5443 C.ar    1  <0>        -0.0429
      4 C4          4.8138    5.3021   16.8435 C.ar    1  <0>        -0.0581
      5 C5          4.5127    4.2106   14.7259 C.ar    1  <0>        -0.0317
      6 C6          8.0251    4.1297   21.3069 C.ar    1  <0>        -0.0496
      7 C7          7.6426    2.4313   22.9890 C.ar    1  <0>         0.0297
      8 C8          6.4620    3.7635   16.0504 C.ar    1  <0>        -0.0282
      9 C9          5.6178    2.7224   19.0903 C.2     1  <0>        -0.0007
     10 C10         6.8537    4.8413   18.2622 C.3     1  <0>        -0.0005
     11 C11         6.0190    4.6458   17.0171 C.ar    1  <0>        -0.0406
     12 C12         5.7218    3.5574   14.8984 C.ar    1  <0>         0.0761
     13 C13         7.0822    3.4568   20.5702 C.ar    1  <0>         0.0197
     14 C14         6.5082    3.7083   19.2304 C.2     1  <0>        -0.0188
     15 C15         6.4423    2.3584   21.0397 C.ar    1  <0>         0.1300
     16 N1          5.5790    1.9315   20.1089 N.pl3   1  <0>        -0.3050
     17 N2          6.6995    1.8442   22.2419 N.ar    1  <0>        -0.2396
     18 O1          6.1919    2.6435   13.9754 O.3     1  <0>        -0.3479
     19 H1          5.8567    1.4086   12.3372 H       1  <0>         0.0529
     20 H2          4.4718    1.5943   13.4660 H       1  <0>         0.0529
     21 H3          4.9169    2.9391   12.3612 H       1  <0>         0.0529
     22 H4          3.1087    5.5922   15.5743 H       1  <0>         0.0618
     23 H5          9.0759    4.0251   23.1688 H       1  <0>         0.0633
     24 H6          4.4622    5.9880   17.5999 H       1  <0>         0.0620
     25 H7          3.9284    4.0405   13.8336 H       1  <0>         0.0643
     26 H8          8.5045    5.0289   20.9489 H       1  <0>         0.0625
     27 H9          7.8866    2.0149   23.9552 H       1  <0>         0.0830
     28 H10         7.3909    3.2316   16.1941 H       1  <0>         0.0646
     29 H11         4.9955    2.6003   18.2160 H       1  <0>         0.0785
     30 H12         7.9238    4.8102   18.0094 H       1  <0>         0.0362
     31 H13         6.6261    5.8145   18.7216 H       1  <0>         0.0362
     32 H14         4.9946    1.1242   20.1908 H       1  <0>         0.1530
@<TRIPOS>BOND
     1     1    18    1
     2     2     4   ar
     3     2     5   ar
     4     3     6   ar
     5     3     7   ar
     6     4    11   ar
     7     5    12   ar
     8     6    13   ar
     9     7    17   ar
    10     8    11   ar
    11     8    12   ar
    12     9    14    2
    13     9    16    1
    14    10    11    1
    15    10    14    1
    16    12    18    1
    17    13    14    1
    18    13    15   ar
    19    15    16    1
    20    15    17   ar
    21     1    19    1
    22     1    20    1
    23     1    21    1
    24     2    22    1
    25     3    23    1
    26     4    24    1
    27     5    25    1
    28     6    26    1
    29     7    27    1
    30     8    28    1
    31     9    29    1
    32    10    30    1
    33    10    31    1
    34    16    32    1
@<TRIPOS>SUBSTRUCTURE
     1 <0>         1 TEMP              0 ****  ****    0 ROOT

