
##########                                Name:        AT1_258_1VSO
##########                    Molecular_Weight:             320.239
##########                DOCK_Rotatable_Bonds:                   7
##########                       Formal_Charge:             -1.9998
##########                     HBond_Acceptors:                   9
##########                        HBond_Donors:                   3
##########                         Heavy_Atoms:                  21
##########                            HA_RMSDs:               0.678
##########                            HA_RMSDh:               0.678
##########                            HA_RMSDm:               0.678
##########                          Grid_Score:           55.933170
##########                     Grid_vdw_energy:          -29.944759
##########                      Grid_es_energy:           85.877930
##########           Internal_energy_repulsive:            8.001910

@<TRIPOS>MOLECULE
AT1_258_1VSO
 38 38 1 0 0
SMALL
USER_CHARGES


@<TRIPOS>ATOM
      1 C1         39.7888    8.9744    9.4020 C.3     1  <0>        -0.0541
      2 C2         41.7017    7.3760    9.5921 C.3     1  <0>        -0.0541
      3 C3         41.1544    8.4174    7.4104 C.3     1  <0>        -0.0541
      4 C4         39.2532    6.0218    5.8907 C.3     1  <0>         0.0271
      5 C5         36.5270    3.2970    8.0231 C.3     1  <0>         0.0830
      6 C6         39.0600    5.9841    7.3772 C.2     1  <0>         0.0385
      7 C7         39.5762    6.6928    8.4442 C.2     1  <0>         0.0984
      8 C8         38.1561    5.0663    8.0047 C.2     1  <0>         0.2008
      9 C9         40.0511    4.8546    5.3033 C.3     1  <0>         0.0202
     10 C10        39.7716    4.6886    3.7567 C.2     1  <0>         0.0897
     11 C11        40.5628    7.8395    8.6892 C.3     1  <0>         0.0117
     12 N1         41.5623    5.0463    5.5006 N.4     1  <0>         0.2251
     13 N2         38.1132    5.1778    9.3115 N.2     1  <0>        -0.1019
     14 O1         40.7765    4.7152    2.9822 O.co2   1  <0>        -0.5442
     15 O2         34.4396    1.7513    7.6815 O.3     1  <0>        -0.8113
     16 O3         34.7119    3.6185    6.0499 O.3     1  <0>        -0.8113
     17 O4         38.5807    4.5372    3.3980 O.co2   1  <0>        -0.5442
     18 O5         36.2633    1.6081    5.9386 O.2     1  <0>        -0.3512
     19 O6         39.0250    6.2201    9.5965 O.3     1  <0>        -0.2138
     20 O7         37.4249    4.1920    7.2870 O.3     1  <0>        -0.3211
     21 P1         35.4448    2.4743    6.8271 P.3     1  <0>        -0.0394
     22 H1         38.9643    9.3166    8.7592 H       1  <0>         0.0239
     23 H2         39.3811    8.5993   10.3523 H       1  <0>         0.0239
     24 H3         40.4708    9.8140    9.6014 H       1  <0>         0.0239
     25 H4         42.2591    6.5687    9.0949 H       1  <0>         0.0239
     26 H5         42.3785    8.2201    9.7910 H       1  <0>         0.0239
     27 H6         41.2888    7.0053   10.5419 H       1  <0>         0.0239
     28 H7         41.7132    7.6340    6.8776 H       1  <0>         0.0239
     29 H8         40.3436    8.7908    6.7676 H       1  <0>         0.0239
     30 H9         41.8337    9.2452    7.6623 H       1  <0>         0.0239
     31 H10        38.2561    6.0092    5.4262 H       1  <0>         0.0374
     32 H11        39.7948    6.9484    5.6499 H       1  <0>         0.0374
     33 H12        37.1143    2.5477    8.5743 H       1  <0>         0.0622
     34 H13        35.9238    3.8763    8.7375 H       1  <0>         0.0622
     35 H14        39.7216    3.9532    5.8409 H       1  <0>         0.0918
     36 H15        42.0517    4.2684    5.1066 H       1  <0>         0.2001
     37 H16        41.8536    5.8881    5.0462 H       1  <0>         0.2001
     38 H17        41.7656    5.1074    6.4779 H       1  <0>         0.2001
@<TRIPOS>BOND
     1     1    11    1
     2     2    11    1
     3     3    11    1
     4     4     6    1
     5     4     9    1
     6     5    20    1
     7     5    21    1
     8     6     7    2
     9     6     8    1
    10     7    11    1
    11     7    19    1
    12     8    13    2
    13     8    20    1
    14     9    10    1
    15     9    12    1
    16    10    14    1
    17    10    17    2
    18    13    19    1
    19    15    21    1
    20    16    21    1
    21    18    21    2
    22     1    22    1
    23     1    23    1
    24     1    24    1
    25     2    25    1
    26     2    26    1
    27     2    27    1
    28     3    28    1
    29     3    29    1
    30     3    30    1
    31     4    31    1
    32     4    32    1
    33     5    33    1
    34     5    34    1
    35     9    35    1
    36    12    36    1
    37    12    37    1
    38    12    38    1
@<TRIPOS>SUBSTRUCTURE
     1 <0>         1 TEMP              0 ****  ****    0 ROOT

