Z26395438
  MJ210100                      

 21 23  0  0  0  0  0  0  0  0999 V2000
    0.6356   -2.0595    0.0000 F   0  0  0  0  0  0  0  0  0  0  0  0
    1.3501   -1.6470    0.0000 C   0  0  0  0  0  0  0  0  0  0  0  0
    1.3501   -0.8220    0.0000 C   0  0  0  0  0  0  0  0  0  0  0  0
    2.0645   -0.4095    0.0000 C   0  0  0  0  0  0  0  0  0  0  0  0
    2.7790   -0.8220    0.0000 C   0  0  0  0  0  0  0  0  0  0  0  0
    2.7790   -1.6470    0.0000 C   0  0  0  0  0  0  0  0  0  0  0  0
    2.0645   -2.0595    0.0000 C   0  0  0  0  0  0  0  0  0  0  0  0
    3.4935   -0.4095    0.0000 C   0  0  0  0  0  0  0  0  0  0  0  0
    3.4935    0.4154    0.0000 O   0  0  0  0  0  0  0  0  0  0  0  0
    4.2080   -0.8220    0.0000 N   0  0  0  0  0  0  0  0  0  0  0  0
    4.9224   -0.4095    0.0000 C   0  0  0  0  0  0  0  0  0  0  0  0
    5.6369   -0.8220    0.0000 C   0  0  0  0  0  0  0  0  0  0  0  0
    6.3514   -0.4095    0.0000 C   0  0  0  0  0  0  0  0  0  0  0  0
    6.4376    0.4108    0.0000 C   0  0  0  0  0  0  0  0  0  0  0  0
    7.2446    0.5824    0.0000 N   0  0  0  0  0  0  0  0  0  0  0  0
    7.6571   -0.1320    0.0000 C   0  0  0  0  0  0  0  0  0  0  0  0
    8.4641   -0.3035    0.0000 C   0  0  0  0  0  0  0  0  0  0  0  0
    8.7190   -1.0881    0.0000 C   0  0  0  0  0  0  0  0  0  0  0  0
    8.1670   -1.7012    0.0000 C   0  0  0  0  0  0  0  0  0  0  0  0
    7.3600   -1.5297    0.0000 C   0  0  0  0  0  0  0  0  0  0  0  0
    7.1051   -0.7451    0.0000 C   0  0  0  0  0  0  0  0  0  0  0  0
  1  2  1  0  0  0  0
  2  3  2  0  0  0  0
  3  4  1  0  0  0  0
  4  5  2  0  0  0  0
  5  6  1  0  0  0  0
  6  7  2  0  0  0  0
  2  7  1  0  0  0  0
  5  8  1  0  0  0  0
  8  9  2  0  0  0  0
  8 10  1  0  0  0  0
 10 11  1  0  0  0  0
 11 12  1  0  0  0  0
 12 13  1  0  0  0  0
 13 14  2  0  0  0  0
 14 15  1  0  0  0  0
 15 16  1  0  0  0  0
 16 17  2  0  0  0  0
 17 18  1  0  0  0  0
 18 19  2  0  0  0  0
 19 20  1  0  0  0  0
 20 21  2  0  0  0  0
 13 21  1  0  0  0  0
 16 21  1  0  0  0  0
M  END
