Z26395449
  MJ210100                      

 25 28  0  0  0  0  0  0  0  0999 V2000
    3.6579   -8.2818    0.0000 O   0  0  0  0  0  0  0  0  0  0  0  0
    2.8510   -8.4533    0.0000 C   0  0  0  0  0  0  0  0  0  0  0  0
    2.5960   -9.2379    0.0000 C   0  0  0  0  0  0  0  0  0  0  0  0
    1.7890   -9.4095    0.0000 C   0  0  0  0  0  0  0  0  0  0  0  0
    1.5341  -10.1941    0.0000 C   0  0  0  0  0  0  0  0  0  0  0  0
    0.7271  -10.3656    0.0000 C   0  0  0  0  0  0  0  0  0  0  0  0
    0.1751   -9.7525    0.0000 C   0  0  0  0  0  0  0  0  0  0  0  0
    0.4300   -8.9679    0.0000 C   0  0  0  0  0  0  0  0  0  0  0  0
    1.2370   -8.7963    0.0000 C   0  0  0  0  0  0  0  0  0  0  0  0
    1.4920   -8.0117    0.0000 C   0  0  0  0  0  0  0  0  0  0  0  0
    2.2989   -7.8402    0.0000 C   0  0  0  0  0  0  0  0  0  0  0  0
    2.5539   -7.0556    0.0000 C   0  0  0  0  0  0  0  0  0  0  0  0
    2.0018   -6.4425    0.0000 O   0  0  0  0  0  0  0  0  0  0  0  0
    3.3608   -6.8840    0.0000 N   0  0  0  0  0  0  0  0  0  0  0  0
    3.6158   -6.0994    0.0000 C   0  0  0  0  0  0  0  0  0  0  0  0
    4.4228   -5.9279    0.0000 C   0  0  0  0  0  0  0  0  0  0  0  0
    4.6777   -5.1433    0.0000 C   0  0  0  0  0  0  0  0  0  0  0  0
    4.1928   -4.4758    0.0000 C   0  0  0  0  0  0  0  0  0  0  0  0
    4.6777   -3.8084    0.0000 N   0  0  0  0  0  0  0  0  0  0  0  0
    5.4623   -4.0633    0.0000 C   0  0  0  0  0  0  0  0  0  0  0  0
    6.1768   -3.6508    0.0000 C   0  0  0  0  0  0  0  0  0  0  0  0
    6.8912   -4.0633    0.0000 C   0  0  0  0  0  0  0  0  0  0  0  0
    6.8912   -4.8883    0.0000 C   0  0  0  0  0  0  0  0  0  0  0  0
    6.1768   -5.3008    0.0000 C   0  0  0  0  0  0  0  0  0  0  0  0
    5.4623   -4.8883    0.0000 C   0  0  0  0  0  0  0  0  0  0  0  0
  1  2  1  0  0  0  0
  2  3  2  0  0  0  0
  3  4  1  0  0  0  0
  4  5  2  0  0  0  0
  5  6  1  0  0  0  0
  6  7  2  0  0  0  0
  7  8  1  0  0  0  0
  8  9  2  0  0  0  0
  4  9  1  0  0  0  0
  9 10  1  0  0  0  0
 10 11  2  0  0  0  0
  2 11  1  0  0  0  0
 11 12  1  0  0  0  0
 12 13  2  0  0  0  0
 12 14  1  0  0  0  0
 14 15  1  0  0  0  0
 15 16  1  0  0  0  0
 16 17  1  0  0  0  0
 17 18  2  0  0  0  0
 18 19  1  0  0  0  0
 19 20  1  0  0  0  0
 20 21  2  0  0  0  0
 21 22  1  0  0  0  0
 22 23  2  0  0  0  0
 23 24  1  0  0  0  0
 24 25  2  0  0  0  0
 17 25  1  0  0  0  0
 20 25  1  0  0  0  0
M  END
