
##########                                Name:        HUX_803_1E66
##########                    Molecular_Weight:             298.815
##########                DOCK_Rotatable_Bonds:                   1
##########                       Formal_Charge:         5.96046e-08
##########                     HBond_Acceptors:                   3
##########                        HBond_Donors:                   2
##########                         Heavy_Atoms:                  21
##########                            HA_RMSDs:               0.143
##########                            HA_RMSDh:               0.143
##########                            HA_RMSDm:               0.143
##########                          Grid_Score:          -49.998665
##########                     Grid_vdw_energy:          -48.832291
##########                      Grid_es_energy:           -1.166372
##########           Internal_energy_repulsive:            5.278718

@<TRIPOS>MOLECULE
HUX_803_1E66
 40 43 1 0 0
SMALL
USER_CHARGES


@<TRIPOS>ATOM
      1 C1          4.2188   63.5422   63.9637 C.3     1  <0>        -0.0616
      2 C2          4.9586   70.6105   69.3943 C.ar    1  <0>        -0.0426
      3 C3          3.9245   70.2712   68.6032 C.ar    1  <0>        -0.0494
      4 C4          6.6553   70.3098   67.5089 C.ar    1  <0>        -0.0173
      5 C5          5.4248   68.8373   63.0864 C.3     1  <0>        -0.0069
      6 C6          3.0633   68.5693   62.3618 C.3     1  <0>        -0.0391
      7 C7          4.2350   66.4343   63.0915 C.3     1  <0>        -0.0285
      8 C8          2.2702   67.1588   64.3013 C.2     1  <0>        -0.0772
      9 C9          3.3033   64.6317   64.5675 C.3     1  <0>        -0.0346
     10 C10         6.3912   70.6483   68.9302 C.ar    1  <0>         0.0430
     11 C11         4.2320   69.9007   67.1736 C.ar    1  <0>         0.0214
     12 C12         5.5423   69.9685   66.7648 C.ar    1  <0>         0.0744
     13 C13         4.9093   69.2261   64.5764 C.ar    1  <0>         0.0477
     14 C14         3.5666   69.1086   64.8905 C.ar    1  <0>         0.0020
     15 C15         3.1983   69.4892   66.2977 C.ar    1  <0>         0.0393
     16 C16         4.4325   67.9211   62.3508 C.3     1  <0>        -0.0311
     17 C17         2.5494   68.5910   63.8672 C.3     1  <0>         0.0062
     18 C18         3.2857   66.0908   63.9649 C.2     1  <0>        -0.0729
     19 N1          1.8665   69.3775   66.6526 N.pl3   1  <0>        -0.3572
     20 N2          5.9069   69.6205   65.3950 N.ar    1  <0>        -0.2511
     21 Cl1         7.5930   71.0218   70.0186 Cl      1  <0>        -0.0835
     22 H1          4.0867   62.6021   64.5195 H       1  <0>         0.0233
     23 H2          3.9533   63.3841   62.9080 H       1  <0>         0.0233
     24 H3          5.2680   63.8650   64.0337 H       1  <0>         0.0233
     25 H4          4.7494   70.8708   70.4214 H       1  <0>         0.0632
     26 H5          2.9116   70.2643   68.9779 H       1  <0>         0.0625
     27 H6          7.6489   70.3290   67.0859 H       1  <0>         0.0653
     28 H7          5.5455   69.7628   62.5043 H       1  <0>         0.0331
     29 H8          6.3876   68.3127   63.1743 H       1  <0>         0.0331
     30 H9          3.1286   69.5954   61.9708 H       1  <0>         0.0277
     31 H10         2.3679   67.9928   61.7341 H       1  <0>         0.0277
     32 H11         4.0901   65.7369   62.2533 H       1  <0>         0.0313
     33 H12         5.1730   66.2873   63.6470 H       1  <0>         0.0313
     34 H13         1.3663   66.9111   64.8381 H       1  <0>         0.0578
     35 H14         2.2759   64.2517   64.4680 H       1  <0>         0.0307
     36 H15         3.6168   64.7420   65.6161 H       1  <0>         0.0307
     37 H16         4.8423   67.7745   61.3406 H       1  <0>         0.0308
     38 H17         1.6769   69.2608   63.8601 H       1  <0>         0.0393
     39 H18         1.3353   69.0703   65.8630 H       1  <0>         0.1423
     40 H19         1.7740   68.7139   67.3949 H       1  <0>         0.1423
@<TRIPOS>BOND
     1     1     9    1
     2     2     3   ar
     3     2    10   ar
     4     3    11   ar
     5     4    10   ar
     6     4    12   ar
     7     5    13    1
     8     5    16    1
     9     6    16    1
    10     6    17    1
    11     7    16    1
    12     7    18    1
    13     8    17    1
    14     8    18    2
    15     9    18    1
    16    10    21    1
    17    11    12   ar
    18    11    15   ar
    19    12    20   ar
    20    13    14   ar
    21    13    20   ar
    22    14    15   ar
    23    14    17    1
    24    15    19    1
    25     1    22    1
    26     1    23    1
    27     1    24    1
    28     2    25    1
    29     3    26    1
    30     4    27    1
    31     5    28    1
    32     5    29    1
    33     6    30    1
    34     6    31    1
    35     7    32    1
    36     7    33    1
    37     8    34    1
    38     9    35    1
    39     9    36    1
    40    16    37    1
    41    17    38    1
    42    19    39    1
    43    19    40    1
@<TRIPOS>SUBSTRUCTURE
     1 <0>         1 TEMP              0 ****  ****    0 ROOT

