
##########                                Name:        HUX_803_1E66
##########                    Molecular_Weight:             298.815
##########                DOCK_Rotatable_Bonds:                   1
##########                       Formal_Charge:         5.96046e-08
##########                     HBond_Acceptors:                   3
##########                        HBond_Donors:                   2
##########                         Heavy_Atoms:                  21
##########                            HA_RMSDs:               0.241
##########                            HA_RMSDh:               0.241
##########                            HA_RMSDm:               0.241
##########                          Grid_Score:          -53.718109
##########                     Grid_vdw_energy:          -52.506546
##########                      Grid_es_energy:           -1.211562
##########           Internal_energy_repulsive:            5.206863

@<TRIPOS>MOLECULE
HUX_803_1E66
 40 43 1 0 0
SMALL
USER_CHARGES


@<TRIPOS>ATOM
      1 C1          4.7888   63.9295   64.4950 C.3     1  <0>        -0.0616
      2 C2          4.9353   70.4885   69.4804 C.ar    1  <0>        -0.0426
      3 C3          3.9056   70.1488   68.6837 C.ar    1  <0>        -0.0494
      4 C4          6.6230   70.3272   67.5699 C.ar    1  <0>        -0.0173
      5 C5          5.4000   69.0062   63.0978 C.3     1  <0>        -0.0069
      6 C6          3.0419   68.6900   62.3814 C.3     1  <0>        -0.0391
      7 C7          4.2915   66.5664   63.0080 C.3     1  <0>        -0.0285
      8 C8          2.3153   67.1709   64.2642 C.2     1  <0>        -0.0772
      9 C9          3.4350   64.6711   64.4118 C.3     1  <0>        -0.0346
     10 C10         6.3614   70.5948   69.0067 C.ar    1  <0>         0.0430
     11 C11         4.2116   69.8510   67.2369 C.ar    1  <0>         0.0214
     12 C12         5.5150   69.9808   66.8208 C.ar    1  <0>         0.0744
     13 C13         4.8861   69.3127   64.6074 C.ar    1  <0>         0.0477
     14 C14         3.5512   69.1363   64.9270 C.ar    1  <0>         0.0020
     15 C15         3.1839   69.4430   66.3524 C.ar    1  <0>         0.0393
     16 C16         4.4319   68.0896   62.3311 C.3     1  <0>        -0.0311
     17 C17         2.5421   68.6291   63.8905 C.3     1  <0>         0.0062
     18 C18         3.3627   66.1535   63.8733 C.2     1  <0>        -0.0729
     19 N1          1.8601   69.2710   66.7129 N.pl3   1  <0>        -0.3572
     20 N2          5.8778   69.7048   65.4342 N.ar    1  <0>        -0.2511
     21 Cl1         7.5604   70.9615   70.1005 Cl      1  <0>        -0.0835
     22 H1          4.6288   62.9164   64.8925 H       1  <0>         0.0233
     23 H2          5.2327   63.8631   63.4907 H       1  <0>         0.0233
     24 H3          5.4686   64.4813   65.1607 H       1  <0>         0.0233
     25 H4          4.7275   70.6970   70.5195 H       1  <0>         0.0632
     26 H5          2.8971   70.0915   69.0660 H       1  <0>         0.0625
     27 H6          7.6112   70.3984   67.1401 H       1  <0>         0.0653
     28 H7          5.4840   69.9596   62.5555 H       1  <0>         0.0331
     29 H8          6.3807   68.5113   63.1549 H       1  <0>         0.0331
     30 H9          3.0691   69.7336   62.0349 H       1  <0>         0.0277
     31 H10         2.3603   68.1178   61.7349 H       1  <0>         0.0277
     32 H11         4.1620   65.9013   62.1415 H       1  <0>         0.0313
     33 H12         5.2392   66.4274   63.5489 H       1  <0>         0.0313
     34 H13         1.4254   66.8698   64.7970 H       1  <0>         0.0578
     35 H14         2.8047   64.0737   63.7365 H       1  <0>         0.0307
     36 H15         3.0454   64.7042   65.4399 H       1  <0>         0.0307
     37 H16         4.8367   68.0007   61.3122 H       1  <0>         0.0308
     38 H17         1.6476   69.2687   63.9197 H       1  <0>         0.0393
     39 H18         1.3319   68.9804   65.9151 H       1  <0>         0.1423
     40 H19         1.7970   68.5732   67.4264 H       1  <0>         0.1423
@<TRIPOS>BOND
     1     1     9    1
     2     2     3   ar
     3     2    10   ar
     4     3    11   ar
     5     4    10   ar
     6     4    12   ar
     7     5    13    1
     8     5    16    1
     9     6    16    1
    10     6    17    1
    11     7    16    1
    12     7    18    1
    13     8    17    1
    14     8    18    2
    15     9    18    1
    16    10    21    1
    17    11    12   ar
    18    11    15   ar
    19    12    20   ar
    20    13    14   ar
    21    13    20   ar
    22    14    15   ar
    23    14    17    1
    24    15    19    1
    25     1    22    1
    26     1    23    1
    27     1    24    1
    28     2    25    1
    29     3    26    1
    30     4    27    1
    31     5    28    1
    32     5    29    1
    33     6    30    1
    34     6    31    1
    35     7    32    1
    36     7    33    1
    37     8    34    1
    38     9    35    1
    39     9    36    1
    40    16    37    1
    41    17    38    1
    42    19    39    1
    43    19    40    1
@<TRIPOS>SUBSTRUCTURE
     1 <0>         1 TEMP              0 ****  ****    0 ROOT

