
##########                                Name:        HUX_803_1E66
##########                    Molecular_Weight:             298.815
##########                DOCK_Rotatable_Bonds:                   1
##########                       Formal_Charge:         5.96046e-08
##########                     HBond_Acceptors:                   3
##########                        HBond_Donors:                   2
##########                         Heavy_Atoms:                  21
##########                            HA_RMSDs:               0.190
##########                            HA_RMSDh:               0.190
##########                            HA_RMSDm:               0.190
##########                          Grid_Score:          -54.056068
##########                     Grid_vdw_energy:          -52.915321
##########                      Grid_es_energy:           -1.140746
##########           Internal_energy_repulsive:            5.303235

@<TRIPOS>MOLECULE
HUX_803_1E66
 40 43 1 0 0
SMALL
USER_CHARGES


@<TRIPOS>ATOM
      1 C1          4.0614   63.6301   64.1793 C.3     1  <0>        -0.0616
      2 C2          4.9192   70.8268   69.3277 C.ar    1  <0>        -0.0426
      3 C3          3.8914   70.5048   68.5214 C.ar    1  <0>        -0.0494
      4 C4          6.6480   70.3858   67.5000 C.ar    1  <0>        -0.0173
      5 C5          5.4655   68.8116   63.0995 C.3     1  <0>        -0.0069
      6 C6          3.1135   68.6208   62.3214 C.3     1  <0>        -0.0391
      7 C7          4.1706   66.4643   63.1555 C.3     1  <0>        -0.0285
      8 C8          2.2099   67.3160   64.2865 C.2     1  <0>        -0.0772
      9 C9          3.1229   64.7575   64.6672 C.3     1  <0>        -0.0346
     10 C10         6.3633   70.7858   68.9012 C.ar    1  <0>         0.0430
     11 C11         4.2182   70.0706   67.1141 C.ar    1  <0>         0.0214
     12 C12         5.5401   70.0668   66.7385 C.ar    1  <0>         0.0744
     13 C13         4.9303   69.2752   64.5608 C.ar    1  <0>         0.0477
     14 C14         3.5762   69.2274   64.8426 C.ar    1  <0>         0.0020
     15 C15         3.1897   69.6735   66.2256 C.ar    1  <0>         0.0393
     16 C16         4.4525   67.9137   62.3695 C.3     1  <0>        -0.0311
     17 C17         2.5632   68.7184   63.8109 C.3     1  <0>         0.0062
     18 C18         3.1852   66.1936   64.0144 C.2     1  <0>        -0.0729
     19 N1          1.8457   69.6325   66.5482 N.pl3   1  <0>        -0.3572
     20 N2          5.9235   69.6548   65.3917 N.ar    1  <0>        -0.2511
     21 Cl1         7.5526   71.1453   70.0079 Cl      1  <0>        -0.0835
     22 H1          3.8646   62.7136   64.7550 H       1  <0>         0.0233
     23 H2          3.8795   63.4383   63.1116 H       1  <0>         0.0233
     24 H3          5.1079   63.9362   64.3240 H       1  <0>         0.0233
     25 H4          4.6959   71.1324   70.3393 H       1  <0>         0.0632
     26 H5          2.8700   70.5554   68.8688 H       1  <0>         0.0625
     27 H6          7.6518   70.3468   67.1033 H       1  <0>         0.0653
     28 H7          5.6418   69.7096   62.4893 H       1  <0>         0.0331
     29 H8          6.4016   68.2491   63.2311 H       1  <0>         0.0331
     30 H9          3.2341   69.6285   61.8972 H       1  <0>         0.0277
     31 H10         2.4093   68.0530   61.6956 H       1  <0>         0.0277
     32 H11         4.0161   65.7443   62.3383 H       1  <0>         0.0313
     33 H12         5.0868   66.2965   63.7406 H       1  <0>         0.0313
     34 H13         1.2826   67.1271   64.8071 H       1  <0>         0.0578
     35 H14         2.0992   64.3928   64.4969 H       1  <0>         0.0307
     36 H15         3.3521   64.9005   65.7335 H       1  <0>         0.0307
     37 H16         4.8808   67.7135   61.3763 H       1  <0>         0.0308
     38 H17         1.7217   69.4248   63.7574 H       1  <0>         0.0393
     39 H18         1.3216   69.3208   65.7558 H       1  <0>         0.1423
     40 H19         1.7052   69.0004   67.3102 H       1  <0>         0.1423
@<TRIPOS>BOND
     1     1     9    1
     2     2     3   ar
     3     2    10   ar
     4     3    11   ar
     5     4    10   ar
     6     4    12   ar
     7     5    13    1
     8     5    16    1
     9     6    16    1
    10     6    17    1
    11     7    16    1
    12     7    18    1
    13     8    17    1
    14     8    18    2
    15     9    18    1
    16    10    21    1
    17    11    12   ar
    18    11    15   ar
    19    12    20   ar
    20    13    14   ar
    21    13    20   ar
    22    14    15   ar
    23    14    17    1
    24    15    19    1
    25     1    22    1
    26     1    23    1
    27     1    24    1
    28     2    25    1
    29     3    26    1
    30     4    27    1
    31     5    28    1
    32     5    29    1
    33     6    30    1
    34     6    31    1
    35     7    32    1
    36     7    33    1
    37     8    34    1
    38     9    35    1
    39     9    36    1
    40    16    37    1
    41    17    38    1
    42    19    39    1
    43    19    40    1
@<TRIPOS>SUBSTRUCTURE
     1 <0>         1 TEMP              0 ****  ****    0 ROOT

