
##########                                Name:        HUX_803_1E66
##########                    Molecular_Weight:             298.815
##########                DOCK_Rotatable_Bonds:                   1
##########                       Formal_Charge:         5.96046e-08
##########                     HBond_Acceptors:                   3
##########                        HBond_Donors:                   2
##########                         Heavy_Atoms:                  21
##########                            HA_RMSDs:               0.237
##########                            HA_RMSDh:               0.237
##########                            HA_RMSDm:               0.237
##########                          Grid_Score:          -54.438210
##########                     Grid_vdw_energy:          -53.323124
##########                      Grid_es_energy:           -1.115087
##########           Internal_energy_repulsive:            5.339201

@<TRIPOS>MOLECULE
HUX_803_1E66
 40 43 1 0 0
SMALL
USER_CHARGES


@<TRIPOS>ATOM
      1 C1          4.3624   63.7150   64.1882 C.3     1  <0>        -0.0616
      2 C2          5.0140   70.6651   69.3523 C.ar    1  <0>        -0.0426
      3 C3          3.9489   70.3133   68.6091 C.ar    1  <0>        -0.0494
      4 C4          6.6250   70.3938   67.3889 C.ar    1  <0>        -0.0173
      5 C5          5.2104   68.9161   63.0235 C.3     1  <0>        -0.0069
      6 C6          2.8216   68.6165   62.4088 C.3     1  <0>        -0.0391
      7 C7          4.0561   66.4964   63.0758 C.3     1  <0>        -0.0285
      8 C8          2.1398   67.1895   64.3784 C.2     1  <0>        -0.0772
      9 C9          3.2197   64.6767   64.5875 C.3     1  <0>        -0.0346
     10 C10         6.4227   70.7246   68.8221 C.ar    1  <0>         0.0430
     11 C11         4.1947   69.9512   67.1654 C.ar    1  <0>         0.0214
     12 C12         5.4834   70.0387   66.6962 C.ar    1  <0>         0.0744
     13 C13         4.7595   69.2935   64.5372 C.ar    1  <0>         0.0477
     14 C14         3.4347   69.1560   64.9131 C.ar    1  <0>         0.0020
     15 C15         3.1271   69.5275   66.3373 C.ar    1  <0>         0.0393
     16 C16         4.1979   67.9879   62.3318 C.3     1  <0>        -0.0311
     17 C17         2.3782   68.6267   63.9366 C.3     1  <0>         0.0062
     18 C18         3.1534   66.1370   63.9913 C.2     1  <0>        -0.0729
     19 N1          1.8150   69.3958   66.7534 N.pl3   1  <0>        -0.3572
     20 N2          5.7886   69.6997   65.3097 N.ar    1  <0>        -0.2511
     21 Cl1         7.6686   71.1122   69.8545 Cl      1  <0>        -0.0835
     22 H1          4.2313   62.7537   64.7066 H       1  <0>         0.0233
     23 H2          4.3402   63.5510   63.1008 H       1  <0>         0.0233
     24 H3          5.3289   64.1562   64.4730 H       1  <0>         0.0233
     25 H4          4.8493   70.9197   70.3889 H       1  <0>         0.0632
     26 H5          2.9548   70.2911   69.0306 H       1  <0>         0.0625
     27 H6          7.5974   70.4284   66.9201 H       1  <0>         0.0653
     28 H7          5.2907   69.8448   62.4396 H       1  <0>         0.0331
     29 H8          6.1836   68.4050   63.0646 H       1  <0>         0.0331
     30 H9          2.8542   69.6445   62.0186 H       1  <0>         0.0277
     31 H10         2.1059   68.0319   61.8122 H       1  <0>         0.0277
     32 H11         3.8820   65.7993   62.2430 H       1  <0>         0.0313
     33 H12         5.0210   66.3613   63.5865 H       1  <0>         0.0313
     34 H13         1.2655   66.9276   64.9558 H       1  <0>         0.0578
     35 H14         2.2872   64.1819   64.2784 H       1  <0>         0.0307
     36 H15         3.2957   64.7991   65.6780 H       1  <0>         0.0307
     37 H16         4.5621   67.8499   61.3031 H       1  <0>         0.0308
     38 H17         1.4970   69.2841   63.9725 H       1  <0>         0.0393
     39 H18         1.2520   69.0833   65.9884 H       1  <0>         0.1423
     40 H19         1.7667   68.7289   67.4970 H       1  <0>         0.1423
@<TRIPOS>BOND
     1     1     9    1
     2     2     3   ar
     3     2    10   ar
     4     3    11   ar
     5     4    10   ar
     6     4    12   ar
     7     5    13    1
     8     5    16    1
     9     6    16    1
    10     6    17    1
    11     7    16    1
    12     7    18    1
    13     8    17    1
    14     8    18    2
    15     9    18    1
    16    10    21    1
    17    11    12   ar
    18    11    15   ar
    19    12    20   ar
    20    13    14   ar
    21    13    20   ar
    22    14    15   ar
    23    14    17    1
    24    15    19    1
    25     1    22    1
    26     1    23    1
    27     1    24    1
    28     2    25    1
    29     3    26    1
    30     4    27    1
    31     5    28    1
    32     5    29    1
    33     6    30    1
    34     6    31    1
    35     7    32    1
    36     7    33    1
    37     8    34    1
    38     9    35    1
    39     9    36    1
    40    16    37    1
    41    17    38    1
    42    19    39    1
    43    19    40    1
@<TRIPOS>SUBSTRUCTURE
     1 <0>         1 TEMP              0 ****  ****    0 ROOT

