
##########                                Name:        HUX_803_1E66
##########                    Molecular_Weight:             298.815
##########                DOCK_Rotatable_Bonds:                   1
##########                       Formal_Charge:         5.96046e-08
##########                     HBond_Acceptors:                   3
##########                        HBond_Donors:                   2
##########                         Heavy_Atoms:                  21
##########                            HA_RMSDs:               0.244
##########                            HA_RMSDh:               0.244
##########                            HA_RMSDm:               0.244
##########                          Grid_Score:          -55.033287
##########                     Grid_vdw_energy:          -53.873745
##########                      Grid_es_energy:           -1.159543
##########           Internal_energy_repulsive:            5.338654

@<TRIPOS>MOLECULE
HUX_803_1E66
 40 43 1 0 0
SMALL
USER_CHARGES


@<TRIPOS>ATOM
      1 C1          4.3694   63.7189   64.2069 C.3     1  <0>        -0.0616
      2 C2          4.8377   70.6349   69.4181 C.ar    1  <0>        -0.0426
      3 C3          3.7977   70.2863   68.6388 C.ar    1  <0>        -0.0494
      4 C4          6.5117   70.3766   67.5063 C.ar    1  <0>        -0.0173
      5 C5          5.2409   68.9227   63.0891 C.3     1  <0>        -0.0069
      6 C6          2.8736   68.6243   62.3957 C.3     1  <0>        -0.0391
      7 C7          4.0884   66.5016   63.0901 C.3     1  <0>        -0.0285
      8 C8          2.1303   67.1852   64.3339 C.2     1  <0>        -0.0772
      9 C9          3.2059   64.6722   64.5634 C.3     1  <0>        -0.0346
     10 C10         6.2628   70.6988   68.9341 C.ar    1  <0>         0.0430
     11 C11         4.0905   69.9327   67.2018 C.ar    1  <0>         0.0214
     12 C12         5.3936   70.0243   66.7751 C.ar    1  <0>         0.0744
     13 C13         4.7408   69.2908   64.5896 C.ar    1  <0>         0.0477
     14 C14         3.4048   69.1498   64.9216 C.ar    1  <0>         0.0020
     15 C15         3.0508   69.5127   66.3372 C.ar    1  <0>         0.0393
     16 C16         4.2524   67.9975   62.3596 C.3     1  <0>        -0.0311
     17 C17         2.3811   68.6252   63.9083 C.3     1  <0>         0.0062
     18 C18         3.1571   66.1360   63.9738 C.2     1  <0>        -0.0729
     19 N1          1.7261   69.3773   66.7099 N.pl3   1  <0>        -0.3572
     20 N2          5.7439   69.6936   65.3973 N.ar    1  <0>        -0.2511
     21 Cl1         7.4741   71.0817   70.0086 Cl      1  <0>        -0.0835
     22 H1          4.2216   62.7537   64.7135 H       1  <0>         0.0233
     23 H2          4.3940   63.5616   63.1185 H       1  <0>         0.0233
     24 H3          5.3207   64.1630   64.5350 H       1  <0>         0.0233
     25 H4          4.6393   70.8832   70.4503 H       1  <0>         0.0632
     26 H5          2.7905   70.2605   69.0278 H       1  <0>         0.0625
     27 H6          7.4987   70.4148   67.0695 H       1  <0>         0.0653
     28 H7          5.3390   69.8549   62.5134 H       1  <0>         0.0331
     29 H8          6.2129   68.4124   63.1587 H       1  <0>         0.0331
     30 H9          2.9176   69.6546   62.0127 H       1  <0>         0.0277
     31 H10         2.1783   68.0423   61.7729 H       1  <0>         0.0277
     32 H11         3.9423   65.8091   62.2480 H       1  <0>         0.0313
     33 H12         5.0365   66.3645   63.6309 H       1  <0>         0.0313
     34 H13         1.2380   66.9190   64.8812 H       1  <0>         0.0578
     35 H14         2.2898   64.1748   64.2122 H       1  <0>         0.0307
     36 H15         3.2350   64.7882   65.6569 H       1  <0>         0.0307
     37 H16         4.6500   67.8658   61.3425 H       1  <0>         0.0308
     38 H17         1.4984   69.2814   63.9195 H       1  <0>         0.0393
     39 H18         1.1885   69.0687   65.9253 H       1  <0>         0.1423
     40 H19         1.6545   68.7061   67.4476 H       1  <0>         0.1423
@<TRIPOS>BOND
     1     1     9    1
     2     2     3   ar
     3     2    10   ar
     4     3    11   ar
     5     4    10   ar
     6     4    12   ar
     7     5    13    1
     8     5    16    1
     9     6    16    1
    10     6    17    1
    11     7    16    1
    12     7    18    1
    13     8    17    1
    14     8    18    2
    15     9    18    1
    16    10    21    1
    17    11    12   ar
    18    11    15   ar
    19    12    20   ar
    20    13    14   ar
    21    13    20   ar
    22    14    15   ar
    23    14    17    1
    24    15    19    1
    25     1    22    1
    26     1    23    1
    27     1    24    1
    28     2    25    1
    29     3    26    1
    30     4    27    1
    31     5    28    1
    32     5    29    1
    33     6    30    1
    34     6    31    1
    35     7    32    1
    36     7    33    1
    37     8    34    1
    38     9    35    1
    39     9    36    1
    40    16    37    1
    41    17    38    1
    42    19    39    1
    43    19    40    1
@<TRIPOS>SUBSTRUCTURE
     1 <0>         1 TEMP              0 ****  ****    0 ROOT

