
##########                                Name:        HUX_803_1E66
##########                    Molecular_Weight:             298.815
##########                DOCK_Rotatable_Bonds:                   1
##########                       Formal_Charge:         5.96046e-08
##########                     HBond_Acceptors:                   3
##########                        HBond_Donors:                   2
##########                         Heavy_Atoms:                  21
##########                            HA_RMSDs:               0.192
##########                            HA_RMSDh:               0.192
##########                            HA_RMSDm:               0.192
##########                          Grid_Score:          -54.521080
##########                     Grid_vdw_energy:          -53.322693
##########                      Grid_es_energy:           -1.198386
##########           Internal_energy_repulsive:            5.337825

@<TRIPOS>MOLECULE
HUX_803_1E66
 40 43 1 0 0
SMALL
USER_CHARGES


@<TRIPOS>ATOM
      1 C1          4.2983   63.6763   64.3111 C.3     1  <0>        -0.0616
      2 C2          4.7835   70.7875   69.2329 C.ar    1  <0>        -0.0426
      3 C3          3.8093   70.4850   68.3557 C.ar    1  <0>        -0.0494
      4 C4          6.6289   70.2947   67.5372 C.ar    1  <0>        -0.0173
      5 C5          5.7303   68.7222   63.0694 C.3     1  <0>        -0.0069
      6 C6          3.4368   68.5824   62.1239 C.3     1  <0>        -0.0391
      7 C7          4.3788   66.4066   63.0416 C.3     1  <0>        -0.0285
      8 C8          2.3625   67.3111   64.0240 C.2     1  <0>        -0.0772
      9 C9          3.1839   64.7341   64.4809 C.3     1  <0>        -0.0346
     10 C10         6.2533   70.7098   68.9123 C.ar    1  <0>         0.0430
     11 C11         4.2265   70.0346   66.9776 C.ar    1  <0>         0.0214
     12 C12         5.5717   69.9974   66.6988 C.ar    1  <0>         0.0744
     13 C13         5.1021   69.2073   64.4861 C.ar    1  <0>         0.0477
     14 C14         3.7304   69.1931   64.6693 C.ar    1  <0>         0.0020
     15 C15         3.2557   69.6566   66.0187 C.ar    1  <0>         0.0393
     16 C16         4.7515   67.8442   62.2718 C.3     1  <0>        -0.0311
     17 C17         2.7827   68.7019   63.5691 C.3     1  <0>         0.0062
     18 C18         3.3277   66.1644   63.8281 C.2     1  <0>        -0.0729
     19 N1          1.8913   69.6492   66.2433 N.pl3   1  <0>        -0.3572
     20 N2          6.0414   69.5683   65.3851 N.ar    1  <0>        -0.2511
     21 Cl1         7.3678   71.0479   70.1007 Cl      1  <0>        -0.0835
     22 H1          4.0114   62.7532   64.8361 H       1  <0>         0.0233
     23 H2          4.4392   63.4608   63.2416 H       1  <0>         0.0233
     24 H3          5.2374   64.0620   64.7344 H       1  <0>         0.0233
     25 H4          4.4951   71.1044   70.2243 H       1  <0>         0.0632
     26 H5          2.7670   70.5616   68.6280 H       1  <0>         0.0625
     27 H6          7.6576   70.2296   67.2144 H       1  <0>         0.0653
     28 H7          5.9717   69.6122   62.4697 H       1  <0>         0.0331
     29 H8          6.6407   68.1387   63.2709 H       1  <0>         0.0331
     30 H9          3.6119   69.5844   61.7051 H       1  <0>         0.0277
     31 H10         2.7663   68.0275   61.4511 H       1  <0>         0.0277
     32 H11         4.2666   65.6855   62.2185 H       1  <0>         0.0313
     33 H12         5.2461   66.2208   63.6923 H       1  <0>         0.0313
     34 H13         1.3957   67.1473   64.4768 H       1  <0>         0.0578
     35 H14         2.2781   64.2914   64.0411 H       1  <0>         0.0307
     36 H15         3.0921   64.9045   65.5637 H       1  <0>         0.0307
     37 H16         5.2455   67.6279   61.3132 H       1  <0>         0.0308
     38 H17         1.9645   69.4276   63.4518 H       1  <0>         0.0393
     39 H18         1.4185   69.3452   65.4163 H       1  <0>         0.1423
     40 H19         1.6810   69.0252   66.9959 H       1  <0>         0.1423
@<TRIPOS>BOND
     1     1     9    1
     2     2     3   ar
     3     2    10   ar
     4     3    11   ar
     5     4    10   ar
     6     4    12   ar
     7     5    13    1
     8     5    16    1
     9     6    16    1
    10     6    17    1
    11     7    16    1
    12     7    18    1
    13     8    17    1
    14     8    18    2
    15     9    18    1
    16    10    21    1
    17    11    12   ar
    18    11    15   ar
    19    12    20   ar
    20    13    14   ar
    21    13    20   ar
    22    14    15   ar
    23    14    17    1
    24    15    19    1
    25     1    22    1
    26     1    23    1
    27     1    24    1
    28     2    25    1
    29     3    26    1
    30     4    27    1
    31     5    28    1
    32     5    29    1
    33     6    30    1
    34     6    31    1
    35     7    32    1
    36     7    33    1
    37     8    34    1
    38     9    35    1
    39     9    36    1
    40    16    37    1
    41    17    38    1
    42    19    39    1
    43    19    40    1
@<TRIPOS>SUBSTRUCTURE
     1 <0>         1 TEMP              0 ****  ****    0 ROOT

