
##########                                Name:        HUX_803_1E66
##########                    Molecular_Weight:             298.815
##########                DOCK_Rotatable_Bonds:                   1
##########                       Formal_Charge:         5.96046e-08
##########                     HBond_Acceptors:                   3
##########                        HBond_Donors:                   2
##########                         Heavy_Atoms:                  21
##########                            HA_RMSDs:               0.339
##########                            HA_RMSDh:               0.339
##########                            HA_RMSDm:               0.339
##########                          Grid_Score:          -55.254635
##########                     Grid_vdw_energy:          -54.140678
##########                      Grid_es_energy:           -1.113956
##########           Internal_energy_repulsive:            5.315932

@<TRIPOS>MOLECULE
HUX_803_1E66
 40 43 1 0 0
SMALL
USER_CHARGES


@<TRIPOS>ATOM
      1 C1          4.5615   63.8473   64.2081 C.3     1  <0>        -0.0616
      2 C2          4.9368   70.5462   69.4904 C.ar    1  <0>        -0.0426
      3 C3          3.8755   70.1844   68.7467 C.ar    1  <0>        -0.0494
      4 C4          6.5299   70.4131   67.4983 C.ar    1  <0>        -0.0173
      5 C5          5.1116   69.0572   63.0949 C.3     1  <0>        -0.0069
      6 C6          2.7273   68.6931   62.4976 C.3     1  <0>        -0.0391
      7 C7          4.0481   66.5959   63.0643 C.3     1  <0>        -0.0285
      8 C8          2.1255   67.1648   64.4167 C.2     1  <0>        -0.0772
      9 C9          3.3001   64.6878   64.5120 C.3     1  <0>        -0.0346
     10 C10         6.3350   70.6792   68.9460 C.ar    1  <0>         0.0430
     11 C11         4.1148   69.8890   67.2868 C.ar    1  <0>         0.0214
     12 C12         5.3929   70.0432   66.8059 C.ar    1  <0>         0.0744
     13 C13         4.6677   69.3573   64.6278 C.ar    1  <0>         0.0477
     14 C14         3.3541   69.1557   65.0139 C.ar    1  <0>         0.0020
     15 C15         3.0524   69.4588   66.4554 C.ar    1  <0>         0.0393
     16 C16         4.1247   68.1199   62.3788 C.3     1  <0>        -0.0311
     17 C17         2.3047   68.6263   64.0298 C.3     1  <0>         0.0062
     18 C18         3.1719   66.1671   63.9755 C.2     1  <0>        -0.0729
     19 N1          1.7518   69.2618   66.8818 N.pl3   1  <0>        -0.3572
     20 N2          5.6915   69.7709   65.4034 N.ar    1  <0>        -0.2511
     21 Cl1         7.5797   71.0720   69.9779 Cl      1  <0>        -0.0835
     22 H1          4.4588   62.8523   64.6657 H       1  <0>         0.0233
     23 H2          4.6767   63.7398   63.1194 H       1  <0>         0.0233
     24 H3          5.4467   64.3518   64.6226 H       1  <0>         0.0233
     25 H4          4.7769   70.7532   70.5383 H       1  <0>         0.0632
     26 H5          2.8887   70.1083   69.1790 H       1  <0>         0.0625
     27 H6          7.4939   70.5025   67.0196 H       1  <0>         0.0653
     28 H7          5.1497   70.0106   62.5476 H       1  <0>         0.0331
     29 H8          6.1034   68.5817   63.1037 H       1  <0>         0.0331
     30 H9          2.7166   69.7362   62.1485 H       1  <0>         0.0277
     31 H10         2.0257   68.1060   61.8869 H       1  <0>         0.0277
     32 H11         3.8886   65.9262   62.2064 H       1  <0>         0.0313
     33 H12         5.0242   66.4769   63.5574 H       1  <0>         0.0313
     34 H13         1.2694   66.8477   64.9937 H       1  <0>         0.0578
     35 H14         2.4561   64.1341   64.0750 H       1  <0>         0.0307
     36 H15         3.2414   64.7581   65.6082 H       1  <0>         0.0307
     37 H16         4.4798   68.0363   61.3411 H       1  <0>         0.0308
     38 H17         1.4004   69.2483   64.1027 H       1  <0>         0.0393
     39 H18         1.1904   68.9589   66.1118 H       1  <0>         0.1423
     40 H19         1.7382   68.5647   67.5986 H       1  <0>         0.1423
@<TRIPOS>BOND
     1     1     9    1
     2     2     3   ar
     3     2    10   ar
     4     3    11   ar
     5     4    10   ar
     6     4    12   ar
     7     5    13    1
     8     5    16    1
     9     6    16    1
    10     6    17    1
    11     7    16    1
    12     7    18    1
    13     8    17    1
    14     8    18    2
    15     9    18    1
    16    10    21    1
    17    11    12   ar
    18    11    15   ar
    19    12    20   ar
    20    13    14   ar
    21    13    20   ar
    22    14    15   ar
    23    14    17    1
    24    15    19    1
    25     1    22    1
    26     1    23    1
    27     1    24    1
    28     2    25    1
    29     3    26    1
    30     4    27    1
    31     5    28    1
    32     5    29    1
    33     6    30    1
    34     6    31    1
    35     7    32    1
    36     7    33    1
    37     8    34    1
    38     9    35    1
    39     9    36    1
    40    16    37    1
    41    17    38    1
    42    19    39    1
    43    19    40    1
@<TRIPOS>SUBSTRUCTURE
     1 <0>         1 TEMP              0 ****  ****    0 ROOT

