
##########                                Name:        HUX_803_1E66
##########                    Molecular_Weight:             298.815
##########                DOCK_Rotatable_Bonds:                   1
##########                       Formal_Charge:         5.96046e-08
##########                     HBond_Acceptors:                   3
##########                        HBond_Donors:                   2
##########                         Heavy_Atoms:                  21
##########                            HA_RMSDs:               0.225
##########                            HA_RMSDh:               0.225
##########                            HA_RMSDm:               0.225
##########                          Grid_Score:          -55.394276
##########                     Grid_vdw_energy:          -54.262085
##########                      Grid_es_energy:           -1.132190
##########           Internal_energy_repulsive:            5.334658

@<TRIPOS>MOLECULE
HUX_803_1E66
 40 43 1 0 0
SMALL
USER_CHARGES


@<TRIPOS>ATOM
      1 C1          4.5336   63.7530   63.9925 C.3     1  <0>        -0.0616
      2 C2          4.9685   70.6083   69.4529 C.ar    1  <0>        -0.0426
      3 C3          3.9287   70.2513   68.6772 C.ar    1  <0>        -0.0494
      4 C4          6.6270   70.4324   67.5185 C.ar    1  <0>        -0.0173
      5 C5          5.3431   69.0436   63.0841 C.3     1  <0>        -0.0069
      6 C6          2.9762   68.7025   62.4092 C.3     1  <0>        -0.0391
      7 C7          4.2497   66.5957   63.0443 C.3     1  <0>        -0.0285
      8 C8          2.2894   67.2041   64.3232 C.2     1  <0>        -0.0772
      9 C9          3.4280   64.7139   64.4864 C.3     1  <0>        -0.0346
     10 C10         6.3861   70.7175   68.9555 C.ar    1  <0>         0.0430
     11 C11         4.2140   69.9361   67.2298 C.ar    1  <0>         0.0214
     12 C12         5.5098   70.0688   66.7915 C.ar    1  <0>         0.0744
     13 C13         4.8508   69.3670   64.5974 C.ar    1  <0>         0.0477
     14 C14         3.5223   69.1862   64.9403 C.ar    1  <0>         0.0020
     15 C15         3.1753   69.5096   66.3671 C.ar    1  <0>         0.0393
     16 C16         4.3693   68.1105   62.3450 C.3     1  <0>        -0.0311
     17 C17         2.5005   68.6587   63.9266 C.3     1  <0>         0.0062
     18 C18         3.3373   66.1884   63.9295 C.2     1  <0>        -0.0729
     19 N1          1.8585   69.3339   66.7507 N.pl3   1  <0>        -0.3572
     20 N2          5.8527   69.7766   65.4032 N.ar    1  <0>        -0.2511
     21 Cl1         7.5996   71.1067   70.0253 Cl      1  <0>        -0.0835
     22 H1          4.4270   62.7807   64.4960 H       1  <0>         0.0233
     23 H2          4.4403   63.6148   62.9052 H       1  <0>         0.0233
     24 H3          5.5205   64.1796   64.2247 H       1  <0>         0.0233
     25 H4          4.7755   70.8294   70.4924 H       1  <0>         0.0632
     26 H5          2.9267   70.1926   69.0761 H       1  <0>         0.0625
     27 H6          7.6079   70.5042   67.0722 H       1  <0>         0.0653
     28 H7          5.4122   69.9901   62.5279 H       1  <0>         0.0331
     29 H8          6.3278   68.5559   63.1323 H       1  <0>         0.0331
     30 H9          2.9910   69.7416   62.0484 H       1  <0>         0.0277
     31 H10         2.2884   68.1173   61.7812 H       1  <0>         0.0277
     32 H11         4.1111   65.9181   62.1888 H       1  <0>         0.0313
     33 H12         5.2067   66.4701   63.5720 H       1  <0>         0.0313
     34 H13         1.4099   66.9044   64.8740 H       1  <0>         0.0578
     35 H14         2.4729   64.2339   64.2266 H       1  <0>         0.0307
     36 H15         3.5747   64.8099   65.5723 H       1  <0>         0.0307
     37 H16         4.7587   68.0106   61.3211 H       1  <0>         0.0308
     38 H17         1.6024   69.2928   63.9614 H       1  <0>         0.0393
     39 H18         1.3199   69.0292   65.9652 H       1  <0>         0.1423
     40 H19         1.8113   68.6453   67.4743 H       1  <0>         0.1423
@<TRIPOS>BOND
     1     1     9    1
     2     2     3   ar
     3     2    10   ar
     4     3    11   ar
     5     4    10   ar
     6     4    12   ar
     7     5    13    1
     8     5    16    1
     9     6    16    1
    10     6    17    1
    11     7    16    1
    12     7    18    1
    13     8    17    1
    14     8    18    2
    15     9    18    1
    16    10    21    1
    17    11    12   ar
    18    11    15   ar
    19    12    20   ar
    20    13    14   ar
    21    13    20   ar
    22    14    15   ar
    23    14    17    1
    24    15    19    1
    25     1    22    1
    26     1    23    1
    27     1    24    1
    28     2    25    1
    29     3    26    1
    30     4    27    1
    31     5    28    1
    32     5    29    1
    33     6    30    1
    34     6    31    1
    35     7    32    1
    36     7    33    1
    37     8    34    1
    38     9    35    1
    39     9    36    1
    40    16    37    1
    41    17    38    1
    42    19    39    1
    43    19    40    1
@<TRIPOS>SUBSTRUCTURE
     1 <0>         1 TEMP              0 ****  ****    0 ROOT

