
##########                                Name:        3AR_902_1QW6
##########                    Molecular_Weight:             217.291
##########                DOCK_Rotatable_Bonds:                   9
##########                       Formal_Charge:              0.9998
##########                     HBond_Acceptors:                   6
##########                        HBond_Donors:                   7
##########                         Heavy_Atoms:                  15
##########                            HA_RMSDs:               9.055
##########                            HA_RMSDh:               9.029
##########                            HA_RMSDm:               7.888
##########                          Grid_Score:         -130.583405
##########                     Grid_vdw_energy:          -19.764111
##########                      Grid_es_energy:         -110.819290
##########           Internal_energy_repulsive:            5.129917

@<TRIPOS>MOLECULE
3AR_902_1QW6
 36 35 1 0 0
SMALL
USER_CHARGES


@<TRIPOS>ATOM
      1 C1          3.5826    2.3094   56.9880 C.3     1  <0>        -0.0639
      2 C2          4.3989    1.1162   57.4942 C.3     1  <0>        -0.0401
      3 C3          8.6799    2.1592   53.2702 C.3     1  <0>        -0.0318
      4 C4         10.0882    1.5144   53.3046 C.3     1  <0>        -0.0029
      5 C5          5.0774    0.3390   56.3613 C.3     1  <0>         0.0152
      6 C6          7.4880    1.1790   53.3632 C.3     1  <0>         0.0156
      7 C7         10.7348    1.1008   51.9629 C.3     1  <0>         0.0160
      8 C8         12.2285    1.3424   52.0147 C.2     1  <0>         0.0894
      9 C9          7.4069    0.1067   55.6462 C.cat   1  <0>         0.3240
     10 N1         10.4916   -0.2867   51.6657 N.4     1  <0>         0.2249
     11 N2          8.1051   -0.5975   56.4834 N.pl3   1  <0>        -0.2027
     12 N3          6.3867    0.8738   56.0892 N.pl3   1  <0>        -0.2792
     13 N4          7.7200    0.0812   54.3182 N.pl3   1  <0>        -0.2792
     14 O1         13.0347    0.6026   52.8244 O.co2   1  <0>        -0.5442
     15 O2         12.7893    2.3393   51.2813 O.co2   1  <0>        -0.5442
     16 H1          3.1207    2.8270   57.8417 H       1  <0>         0.0230
     17 H2          4.2445    3.0053   56.4519 H       1  <0>         0.0230
     18 H3          2.7961    1.9527   56.3066 H       1  <0>         0.0230
     19 H4          5.1788    1.4920   58.1728 H       1  <0>         0.0278
     20 H5          3.7211    0.4327   58.0266 H       1  <0>         0.0278
     21 H6          8.6105    2.8441   54.1282 H       1  <0>         0.0282
     22 H7          8.5883    2.6990   52.3161 H       1  <0>         0.0282
     23 H8         10.7617    2.2522   53.7651 H       1  <0>         0.0324
     24 H9         10.0013    0.5990   53.9084 H       1  <0>         0.0324
     25 H10         5.1747   -0.7159   56.6576 H       1  <0>         0.0463
     26 H11         4.4616    0.4172   55.4532 H       1  <0>         0.0463
     27 H12         6.6020    1.7420   53.6921 H       1  <0>         0.0463
     28 H13         7.3211    0.7419   52.3677 H       1  <0>         0.0463
     29 H14        10.2796    1.7123   51.1699 H       1  <0>         0.0914
     30 H15        10.9217   -0.5217   50.7940 H       1  <0>         0.2001
     31 H16        10.8776   -0.8556   52.3919 H       1  <0>         0.2001
     32 H17         9.5064   -0.4467   51.6048 H       1  <0>         0.2001
     33 H18         8.8676   -1.1544   56.1541 H       1  <0>         0.4373
     34 H19         7.8806   -0.5830   57.4578 H       1  <0>         0.4373
     35 H20         6.5468    1.8502   56.2338 H       1  <0>         0.1528
     36 H21         8.1425   -0.7528   53.9632 H       1  <0>         0.1528
@<TRIPOS>BOND
     1     1     2    1
     2     2     5    1
     3     3     4    1
     4     3     6    1
     5     4     7    1
     6     5    12    1
     7     6    13    1
     8     7     8    1
     9     7    10    1
    10     8    14    1
    11     8    15    2
    12     9    11    2
    13     9    12    1
    14     9    13    1
    15     1    16    1
    16     1    17    1
    17     1    18    1
    18     2    19    1
    19     2    20    1
    20     3    21    1
    21     3    22    1
    22     4    23    1
    23     4    24    1
    24     5    25    1
    25     5    26    1
    26     6    27    1
    27     6    28    1
    28     7    29    1
    29    10    30    1
    30    10    31    1
    31    10    32    1
    32    11    33    1
    33    11    34    1
    34    12    35    1
    35    13    36    1
@<TRIPOS>SUBSTRUCTURE
     1 <0>         1 TEMP              0 ****  ****    0 ROOT

