
##########                                Name:        3AR_902_1QW6
##########                    Molecular_Weight:             217.291
##########                DOCK_Rotatable_Bonds:                   9
##########                       Formal_Charge:              0.9998
##########                     HBond_Acceptors:                   6
##########                        HBond_Donors:                   7
##########                         Heavy_Atoms:                  15
##########                            HA_RMSDs:               7.769
##########                            HA_RMSDh:               7.744
##########                            HA_RMSDm:               6.598
##########                          Grid_Score:         -141.635925
##########                     Grid_vdw_energy:          -23.892572
##########                      Grid_es_energy:         -117.743355
##########           Internal_energy_repulsive:            7.393324

@<TRIPOS>MOLECULE
3AR_902_1QW6
 36 35 1 0 0
SMALL
USER_CHARGES


@<TRIPOS>ATOM
      1 C1          3.3703    1.6035   56.9012 C.3     1  <0>        -0.0639
      2 C2          3.6298    0.6474   58.0695 C.3     1  <0>        -0.0401
      3 C3          6.8831    0.7187   53.9744 C.3     1  <0>        -0.0318
      4 C4          8.3933    1.0477   53.8688 C.3     1  <0>        -0.0029
      5 C5          4.3698   -0.6242   57.6413 C.3     1  <0>         0.0152
      6 C6          6.5325   -0.7689   54.2070 C.3     1  <0>         0.0156
      7 C7          9.1482    0.6111   52.5925 C.3     1  <0>         0.0160
      8 C8         10.5811    1.0965   52.6501 C.2     1  <0>         0.0894
      9 C9          6.5520   -1.1998   56.6934 C.cat   1  <0>         0.3240
     10 N1          9.1409   -0.8203   52.4389 N.4     1  <0>         0.2249
     11 N2          6.9783   -1.9597   57.6551 N.pl3   1  <0>        -0.2027
     12 N3          5.5749   -0.2956   56.9244 N.pl3   1  <0>        -0.2792
     13 N4          7.1082   -1.3071   55.4519 N.pl3   1  <0>        -0.2792
     14 O1         11.6231    0.2431   52.4523 O.co2   1  <0>        -0.5442
     15 O2         10.8560    2.3937   52.9464 O.co2   1  <0>        -0.5442
     16 H1          2.8387    2.4945   57.2669 H       1  <0>         0.0230
     17 H2          4.3292    1.9062   56.4554 H       1  <0>         0.0230
     18 H3          2.7566    1.0965   56.1420 H       1  <0>         0.0230
     19 H4          4.2437    1.1712   58.8168 H       1  <0>         0.0278
     20 H5          2.6610    0.3564   58.5016 H       1  <0>         0.0278
     21 H6          6.4809    1.2885   54.8250 H       1  <0>         0.0282
     22 H7          6.4130    1.0234   53.0277 H       1  <0>         0.0282
     23 H8          8.4826    2.1423   53.9293 H       1  <0>         0.0324
     24 H9          8.8855    0.5444   54.7141 H       1  <0>         0.0324
     25 H10         4.6322   -1.2059   58.5373 H       1  <0>         0.0463
     26 H11         3.7139   -1.2186   56.9882 H       1  <0>         0.0463
     27 H12         5.4378   -0.8615   54.2638 H       1  <0>         0.0463
     28 H13         6.9269   -1.3533   53.3626 H       1  <0>         0.0463
     29 H14         8.6318    1.0572   51.7298 H       1  <0>         0.0914
     30 H15         9.6359   -1.0691   51.6064 H       1  <0>         0.2001
     31 H16         9.5848   -1.2425   53.2293 H       1  <0>         0.2001
     32 H17         8.1969   -1.1437   52.3745 H       1  <0>         0.2001
     33 H18         7.7104   -2.6192   57.4842 H       1  <0>         0.4373
     34 H19         6.5748   -1.8858   58.5671 H       1  <0>         0.4373
     35 H20         5.6929    0.6374   56.5845 H       1  <0>         0.1528
     36 H21         7.9800   -1.7919   55.3810 H       1  <0>         0.1528
@<TRIPOS>BOND
     1     1     2    1
     2     2     5    1
     3     3     4    1
     4     3     6    1
     5     4     7    1
     6     5    12    1
     7     6    13    1
     8     7     8    1
     9     7    10    1
    10     8    14    1
    11     8    15    2
    12     9    11    2
    13     9    12    1
    14     9    13    1
    15     1    16    1
    16     1    17    1
    17     1    18    1
    18     2    19    1
    19     2    20    1
    20     3    21    1
    21     3    22    1
    22     4    23    1
    23     4    24    1
    24     5    25    1
    25     5    26    1
    26     6    27    1
    27     6    28    1
    28     7    29    1
    29    10    30    1
    30    10    31    1
    31    10    32    1
    32    11    33    1
    33    11    34    1
    34    12    35    1
    35    13    36    1
@<TRIPOS>SUBSTRUCTURE
     1 <0>         1 TEMP              0 ****  ****    0 ROOT

