
##########                                Name:        3AR_902_1QW6
##########                    Molecular_Weight:             217.291
##########                DOCK_Rotatable_Bonds:                   9
##########                       Formal_Charge:              0.9998
##########                     HBond_Acceptors:                   6
##########                        HBond_Donors:                   7
##########                         Heavy_Atoms:                  15
##########                            HA_RMSDs:               7.897
##########                            HA_RMSDh:               7.897
##########                            HA_RMSDm:               6.731
##########                          Grid_Score:         -145.212463
##########                     Grid_vdw_energy:          -23.969543
##########                      Grid_es_energy:         -121.242920
##########           Internal_energy_repulsive:            6.479463

@<TRIPOS>MOLECULE
3AR_902_1QW6
 36 35 1 0 0
SMALL
USER_CHARGES


@<TRIPOS>ATOM
      1 C1          4.2444    1.8905   57.7967 C.3     1  <0>        -0.0639
      2 C2          3.5104    0.5463   57.8273 C.3     1  <0>        -0.0401
      3 C3          7.7265    0.9724   54.8075 C.3     1  <0>        -0.0318
      4 C4          9.1672    0.7609   54.2788 C.3     1  <0>        -0.0029
      5 C5          4.3083   -0.5798   57.1616 C.3     1  <0>         0.0152
      6 C6          6.7655   -0.2273   54.6422 C.3     1  <0>         0.0156
      7 C7          9.3543    0.4338   52.7798 C.3     1  <0>         0.0160
      8 C8         10.5623    1.1688   52.2388 C.2     1  <0>         0.0894
      9 C9          6.6423   -1.2810   56.9319 C.cat   1  <0>         0.3240
     10 N1          9.5272   -0.9793   52.5658 N.4     1  <0>         0.2249
     11 N2          7.1896   -2.1101   57.7669 N.pl3   1  <0>        -0.2027
     12 N3          5.7218   -0.3910   57.3633 N.pl3   1  <0>        -0.2792
     13 N4          7.0144   -1.3018   55.6191 N.pl3   1  <0>        -0.2792
     14 O1         11.6453    0.4931   51.7660 O.co2   1  <0>        -0.5442
     15 O2         10.6054    2.5267   52.2566 O.co2   1  <0>        -0.5442
     16 H1          3.6265    2.6575   58.2866 H       1  <0>         0.0230
     17 H2          5.2026    1.7970   58.3287 H       1  <0>         0.0230
     18 H3          4.4314    2.1823   56.7527 H       1  <0>         0.0230
     19 H4          3.3327    0.2717   58.8775 H       1  <0>         0.0278
     20 H5          2.5564    0.6595   57.2915 H       1  <0>         0.0278
     21 H6          7.7993    1.1898   55.8834 H       1  <0>         0.0282
     22 H7          7.2939    1.8191   54.2543 H       1  <0>         0.0282
     23 H8          9.7131    1.6970   54.4679 H       1  <0>         0.0324
     24 H9          9.5886   -0.0853   54.8413 H       1  <0>         0.0324
     25 H10         4.0079   -1.5418   57.6024 H       1  <0>         0.0463
     26 H11         4.0964   -0.5804   56.0822 H       1  <0>         0.0463
     27 H12         5.7353    0.1331   54.7794 H       1  <0>         0.0463
     28 H13         6.8993   -0.6409   53.6317 H       1  <0>         0.0463
     29 H14         8.4458    0.7580   52.2510 H       1  <0>         0.0914
     30 H15         9.6453   -1.1570   51.5888 H       1  <0>         0.2001
     31 H16        10.3361   -1.2949   53.0620 H       1  <0>         0.2001
     32 H17         8.7205   -1.4678   52.8981 H       1  <0>         0.2001
     33 H18         7.8798   -2.7592   57.4471 H       1  <0>         0.4373
     34 H19         6.9212   -2.0998   58.7302 H       1  <0>         0.4373
     35 H20         6.0339    0.4303   57.8409 H       1  <0>         0.1528
     36 H21         7.4967   -2.1148   55.2927 H       1  <0>         0.1528
@<TRIPOS>BOND
     1     1     2    1
     2     2     5    1
     3     3     4    1
     4     3     6    1
     5     4     7    1
     6     5    12    1
     7     6    13    1
     8     7     8    1
     9     7    10    1
    10     8    14    1
    11     8    15    2
    12     9    11    2
    13     9    12    1
    14     9    13    1
    15     1    16    1
    16     1    17    1
    17     1    18    1
    18     2    19    1
    19     2    20    1
    20     3    21    1
    21     3    22    1
    22     4    23    1
    23     4    24    1
    24     5    25    1
    25     5    26    1
    26     6    27    1
    27     6    28    1
    28     7    29    1
    29    10    30    1
    30    10    31    1
    31    10    32    1
    32    11    33    1
    33    11    34    1
    34    12    35    1
    35    13    36    1
@<TRIPOS>SUBSTRUCTURE
     1 <0>         1 TEMP              0 ****  ****    0 ROOT

