
##########                                Name:        3AR_902_1QW6
##########                    Molecular_Weight:             217.291
##########                DOCK_Rotatable_Bonds:                   9
##########                       Formal_Charge:              0.9998
##########                     HBond_Acceptors:                   6
##########                        HBond_Donors:                   7
##########                         Heavy_Atoms:                  15
##########                            HA_RMSDs:               7.537
##########                            HA_RMSDh:               7.495
##########                            HA_RMSDm:               6.411
##########                          Grid_Score:         -140.881622
##########                     Grid_vdw_energy:          -20.964272
##########                      Grid_es_energy:         -119.917351
##########           Internal_energy_repulsive:            4.124406

@<TRIPOS>MOLECULE
3AR_902_1QW6
 36 35 1 0 0
SMALL
USER_CHARGES


@<TRIPOS>ATOM
      1 C1          2.6049    1.8435   57.4557 C.3     1  <0>        -0.0639
      2 C2          3.4072    0.8978   58.3548 C.3     1  <0>        -0.0401
      3 C3          6.7428    0.4709   53.9549 C.3     1  <0>        -0.0318
      4 C4          8.2915    0.4825   53.9146 C.3     1  <0>        -0.0029
      5 C5          3.9308   -0.3312   57.6043 C.3     1  <0>         0.0152
      6 C6          6.0888   -0.8809   54.3223 C.3     1  <0>         0.0156
      7 C7          8.9881    0.2543   52.5537 C.3     1  <0>         0.0160
      8 C8         10.1380    1.2263   52.3942 C.2     1  <0>         0.0894
      9 C9          6.1765   -0.9400   56.8437 C.cat   1  <0>         0.3240
     10 N1          9.4878   -1.0907   52.4357 N.4     1  <0>         0.2249
     11 N2          6.7956   -1.3557   57.9058 N.pl3   1  <0>        -0.2027
     12 N3          5.1789   -0.0348   56.9495 N.pl3   1  <0>        -0.2792
     13 N4          6.5503   -1.4093   55.6180 N.pl3   1  <0>        -0.2792
     14 O1         11.4293    0.8205   52.5383 O.co2   1  <0>        -0.5442
     15 O2          9.8977    2.5403   52.1461 O.co2   1  <0>        -0.5442
     16 H1          2.2560    2.7036   58.0461 H       1  <0>         0.0230
     17 H2          3.2443    2.1983   56.6340 H       1  <0>         0.0230
     18 H3          1.7382    1.3078   57.0411 H       1  <0>         0.0230
     19 H4          4.2680    1.4503   58.7592 H       1  <0>         0.0278
     20 H5          2.7523    0.5542   59.1691 H       1  <0>         0.0278
     21 H6          6.4279    1.2051   54.7110 H       1  <0>         0.0282
     22 H7          6.3854    0.7476   52.9520 H       1  <0>         0.0282
     23 H8          8.6089    1.4742   54.2691 H       1  <0>         0.0324
     24 H9          8.6304   -0.3240   54.5816 H       1  <0>         0.0324
     25 H10         4.0872   -1.1503   58.3216 H       1  <0>         0.0463
     26 H11         3.1910   -0.6323   56.8480 H       1  <0>         0.0463
     27 H12         4.9998   -0.7349   54.3765 H       1  <0>         0.0463
     28 H13         6.3428   -1.6118   53.5405 H       1  <0>         0.0463
     29 H14         8.2407    0.4193   51.7638 H       1  <0>         0.0914
     30 H15         9.9314   -1.2052   51.5469 H       1  <0>         0.2001
     31 H16        10.1507   -1.2649   53.1639 H       1  <0>         0.2001
     32 H17         8.7283   -1.7363   52.5147 H       1  <0>         0.2001
     33 H18         7.5419   -2.0162   57.8232 H       1  <0>         0.4373
     34 H19         6.5263   -1.0156   58.8068 H       1  <0>         0.4373
     35 H20         5.3123    0.8757   56.5581 H       1  <0>         0.1528
     36 H21         7.1915   -2.1764   55.5974 H       1  <0>         0.1528
@<TRIPOS>BOND
     1     1     2    1
     2     2     5    1
     3     3     4    1
     4     3     6    1
     5     4     7    1
     6     5    12    1
     7     6    13    1
     8     7     8    1
     9     7    10    1
    10     8    14    1
    11     8    15    2
    12     9    11    2
    13     9    12    1
    14     9    13    1
    15     1    16    1
    16     1    17    1
    17     1    18    1
    18     2    19    1
    19     2    20    1
    20     3    21    1
    21     3    22    1
    22     4    23    1
    23     4    24    1
    24     5    25    1
    25     5    26    1
    26     6    27    1
    27     6    28    1
    28     7    29    1
    29    10    30    1
    30    10    31    1
    31    10    32    1
    32    11    33    1
    33    11    34    1
    34    12    35    1
    35    13    36    1
@<TRIPOS>SUBSTRUCTURE
     1 <0>         1 TEMP              0 ****  ****    0 ROOT

