
##########                                Name:        3AR_902_1QW6
##########                    Molecular_Weight:             217.291
##########                DOCK_Rotatable_Bonds:                   9
##########                       Formal_Charge:              0.9998
##########                     HBond_Acceptors:                   6
##########                        HBond_Donors:                   7
##########                         Heavy_Atoms:                  15
##########                            HA_RMSDs:               7.893
##########                            HA_RMSDh:               7.858
##########                            HA_RMSDm:               6.737
##########                          Grid_Score:         -140.892746
##########                     Grid_vdw_energy:          -23.004049
##########                      Grid_es_energy:         -117.888702
##########           Internal_energy_repulsive:            6.144636

@<TRIPOS>MOLECULE
3AR_902_1QW6
 36 35 1 0 0
SMALL
USER_CHARGES


@<TRIPOS>ATOM
      1 C1          4.0575    2.2301   57.2009 C.3     1  <0>        -0.0639
      2 C2          3.5751    1.0114   57.9937 C.3     1  <0>        -0.0401
      3 C3          7.4435    1.1549   54.4540 C.3     1  <0>        -0.0318
      4 C4          8.9197    1.0722   53.9910 C.3     1  <0>        -0.0029
      5 C5          4.2541   -0.2893   57.5522 C.3     1  <0>         0.0152
      6 C6          6.6408   -0.1645   54.3835 C.3     1  <0>         0.0156
      7 C7          9.2036    0.6808   52.5229 C.3     1  <0>         0.0160
      8 C8         10.5180    1.2834   52.0740 C.2     1  <0>         0.0894
      9 C9          6.4465   -1.0236   56.7483 C.cat   1  <0>         0.3240
     10 N1          9.2598   -0.7484   52.3594 N.4     1  <0>         0.2249
     11 N2          6.7983   -1.9083   57.6302 N.pl3   1  <0>        -0.2027
     12 N3          5.5916   -0.0325   57.0839 N.pl3   1  <0>        -0.2792
     13 N4          6.9584   -1.0899   55.4851 N.pl3   1  <0>        -0.2792
     14 O1         11.6901    0.9501   52.6808 O.co2   1  <0>        -0.5442
     15 O2         10.5460    2.2081   51.0790 O.co2   1  <0>        -0.5442
     16 H1          3.5380    3.1309   57.5598 H       1  <0>         0.0230
     17 H2          5.1417    2.3524   57.3405 H       1  <0>         0.0230
     18 H3          3.8395    2.0824   56.1329 H       1  <0>         0.0230
     19 H4          3.8014    1.1775   59.0572 H       1  <0>         0.0278
     20 H5          2.4907    0.9058   57.8420 H       1  <0>         0.0278
     21 H6          7.4458    1.4830   55.5039 H       1  <0>         0.0282
     22 H7          6.9357    1.8841   53.8056 H       1  <0>         0.0282
     23 H8          9.3535    2.0719   54.1405 H       1  <0>         0.0324
     24 H9          9.4053    0.3115   54.6199 H       1  <0>         0.0324
     25 H10         4.2994   -0.9791   58.4079 H       1  <0>         0.0463
     26 H11         3.6690   -0.7413   56.7378 H       1  <0>         0.0463
     27 H12         5.5693    0.0794   54.4347 H       1  <0>         0.0463
     28 H13         6.8789   -0.6638   53.4327 H       1  <0>         0.0463
     29 H14         8.3791    1.0701   51.9077 H       1  <0>         0.0914
     30 H15         9.4445   -0.9678   51.4014 H       1  <0>         0.2001
     31 H16         9.9892   -1.1210   52.9331 H       1  <0>         0.2001
     32 H17         8.3848   -1.1494   52.6303 H       1  <0>         0.2001
     33 H18         7.4409   -2.6333   57.3824 H       1  <0>         0.4373
     34 H19         6.4266   -1.8650   58.5576 H       1  <0>         0.4373
     35 H20         5.8994    0.9156   57.0041 H       1  <0>         0.1528
     36 H21         7.6034   -1.8290   55.2906 H       1  <0>         0.1528
@<TRIPOS>BOND
     1     1     2    1
     2     2     5    1
     3     3     4    1
     4     3     6    1
     5     4     7    1
     6     5    12    1
     7     6    13    1
     8     7     8    1
     9     7    10    1
    10     8    14    1
    11     8    15    2
    12     9    11    2
    13     9    12    1
    14     9    13    1
    15     1    16    1
    16     1    17    1
    17     1    18    1
    18     2    19    1
    19     2    20    1
    20     3    21    1
    21     3    22    1
    22     4    23    1
    23     4    24    1
    24     5    25    1
    25     5    26    1
    26     6    27    1
    27     6    28    1
    28     7    29    1
    29    10    30    1
    30    10    31    1
    31    10    32    1
    32    11    33    1
    33    11    34    1
    34    12    35    1
    35    13    36    1
@<TRIPOS>SUBSTRUCTURE
     1 <0>         1 TEMP              0 ****  ****    0 ROOT

