
##########                                Name:        3AR_902_1QW6
##########                    Molecular_Weight:             217.291
##########                DOCK_Rotatable_Bonds:                   9
##########                       Formal_Charge:              0.9998
##########                     HBond_Acceptors:                   6
##########                        HBond_Donors:                   7
##########                         Heavy_Atoms:                  15
##########                            HA_RMSDs:               7.884
##########                            HA_RMSDh:               7.873
##########                            HA_RMSDm:               6.799
##########                          Grid_Score:         -126.161079
##########                     Grid_vdw_energy:          -19.727560
##########                      Grid_es_energy:         -106.433517
##########           Internal_energy_repulsive:            5.433964

@<TRIPOS>MOLECULE
3AR_902_1QW6
 36 35 1 0 0
SMALL
USER_CHARGES


@<TRIPOS>ATOM
      1 C1          3.1214    0.9716   58.3048 C.3     1  <0>        -0.0639
      2 C2          3.4467   -0.5197   58.1760 C.3     1  <0>        -0.0401
      3 C3          6.7298    1.8543   54.1277 C.3     1  <0>        -0.0318
      4 C4          8.2740    1.7958   54.0170 C.3     1  <0>        -0.0029
      5 C5          4.2463   -0.8446   56.9100 C.3     1  <0>         0.0152
      6 C6          6.0054    0.4892   54.1708 C.3     1  <0>         0.0156
      7 C7          8.9538    2.5763   52.8690 C.3     1  <0>         0.0160
      8 C8         10.3814    2.9095   53.2473 C.2     1  <0>         0.0894
      9 C9          6.6122   -0.7380   56.2907 C.cat   1  <0>         0.3240
     10 N1          8.9549    1.8191   51.6445 N.4     1  <0>         0.2249
     11 N2          7.5259   -1.4093   56.9220 N.pl3   1  <0>        -0.2027
     12 N3          5.5514   -0.2377   56.9616 N.pl3   1  <0>        -0.2792
     13 N4          6.7376   -0.5256   54.9485 N.pl3   1  <0>        -0.2792
     14 O1         11.2384    1.9461   53.6835 O.co2   1  <0>        -0.5442
     15 O2         10.8231    4.1935   53.1998 O.co2   1  <0>        -0.5442
     16 H1          2.5490    1.1442   59.2281 H       1  <0>         0.0230
     17 H2          4.0569    1.5491   58.3402 H       1  <0>         0.0230
     18 H3          2.5247    1.2927   57.4382 H       1  <0>         0.0230
     19 H4          4.0426   -0.8216   59.0499 H       1  <0>         0.0278
     20 H5          2.5005   -1.0797   58.1423 H       1  <0>         0.0278
     21 H6          6.4867    2.3854   55.0598 H       1  <0>         0.0282
     22 H7          6.3571    2.3970   53.2465 H       1  <0>         0.0282
     23 H8          8.6733    2.2052   54.9566 H       1  <0>         0.0324
     24 H9          8.5404    0.7373   53.8799 H       1  <0>         0.0324
     25 H10         4.3606   -1.9356   56.8275 H       1  <0>         0.0463
     26 H11         3.7047   -0.4579   56.0341 H       1  <0>         0.0463
     27 H12         5.0190    0.6356   54.6351 H       1  <0>         0.0463
     28 H13         5.8970    0.1226   53.1394 H       1  <0>         0.0463
     29 H14         8.3795    3.5003   52.7071 H       1  <0>         0.0914
     30 H15         9.4005    2.3504   50.9239 H       1  <0>         0.2001
     31 H16         9.4521    0.9626   51.7829 H       1  <0>         0.2001
     32 H17         8.0128    1.6182   51.3762 H       1  <0>         0.2001
     33 H18         8.3163   -1.7675   56.4250 H       1  <0>         0.4373
     34 H19         7.4397   -1.5683   57.9056 H       1  <0>         0.4373
     35 H20         5.6773    0.5855   57.5153 H       1  <0>         0.1528
     36 H21         7.3807   -1.1077   54.4510 H       1  <0>         0.1528
@<TRIPOS>BOND
     1     1     2    1
     2     2     5    1
     3     3     4    1
     4     3     6    1
     5     4     7    1
     6     5    12    1
     7     6    13    1
     8     7     8    1
     9     7    10    1
    10     8    14    1
    11     8    15    2
    12     9    11    2
    13     9    12    1
    14     9    13    1
    15     1    16    1
    16     1    17    1
    17     1    18    1
    18     2    19    1
    19     2    20    1
    20     3    21    1
    21     3    22    1
    22     4    23    1
    23     4    24    1
    24     5    25    1
    25     5    26    1
    26     6    27    1
    27     6    28    1
    28     7    29    1
    29    10    30    1
    30    10    31    1
    31    10    32    1
    32    11    33    1
    33    11    34    1
    34    12    35    1
    35    13    36    1
@<TRIPOS>SUBSTRUCTURE
     1 <0>         1 TEMP              0 ****  ****    0 ROOT

