
##########                                Name:        3AR_902_1QW6
##########                    Molecular_Weight:             217.291
##########                DOCK_Rotatable_Bonds:                   9
##########                       Formal_Charge:              0.9998
##########                     HBond_Acceptors:                   6
##########                        HBond_Donors:                   7
##########                         Heavy_Atoms:                  15
##########                            HA_RMSDs:               8.564
##########                            HA_RMSDh:               8.523
##########                            HA_RMSDm:               7.865
##########                          Grid_Score:         -136.772781
##########                     Grid_vdw_energy:          -22.510181
##########                      Grid_es_energy:         -114.262596
##########           Internal_energy_repulsive:            9.223045

@<TRIPOS>MOLECULE
3AR_902_1QW6
 36 35 1 0 0
SMALL
USER_CHARGES


@<TRIPOS>ATOM
      1 C1          8.8861    3.3693   58.5165 C.3     1  <0>        -0.0639
      2 C2          7.6808    2.4730   58.8172 C.3     1  <0>        -0.0401
      3 C3          6.6528    1.1404   53.9451 C.3     1  <0>        -0.0318
      4 C4          8.1458    1.3879   53.6137 C.3     1  <0>        -0.0029
      5 C5          7.0174    1.9269   57.5485 C.3     1  <0>         0.0152
      6 C6          6.3024   -0.2754   54.4577 C.3     1  <0>         0.0156
      7 C7          8.7313    0.7271   52.3450 C.3     1  <0>         0.0160
      8 C8         10.1977    1.0790   52.2108 C.2     1  <0>         0.0894
      9 C9          7.4485   -0.3304   56.7053 C.cat   1  <0>         0.3240
     10 N1          8.5918   -0.7053   52.3838 N.4     1  <0>         0.2249
     11 N2          7.2312   -1.1235   57.7093 N.pl3   1  <0>        -0.2027
     12 N3          7.8564    0.9399   56.9191 N.pl3   1  <0>        -0.2792
     13 N4          7.2794   -0.7918   55.4323 N.pl3   1  <0>        -0.2792
     14 O1         11.1376    0.4994   53.0068 O.co2   1  <0>        -0.5442
     15 O2         10.5998    2.0196   51.3165 O.co2   1  <0>        -0.5442
     16 H1          9.3197    3.7305   59.4607 H       1  <0>         0.0230
     17 H2          9.6421    2.7933   57.9628 H       1  <0>         0.0230
     18 H3          8.5621    4.2279   57.9099 H       1  <0>         0.0230
     19 H4          8.0240    1.6217   59.4233 H       1  <0>         0.0278
     20 H5          6.9371    3.0655   59.3703 H       1  <0>         0.0278
     21 H6          6.3674    1.8550   54.7312 H       1  <0>         0.0282
     22 H7          6.0787    1.3074   53.0218 H       1  <0>         0.0282
     23 H8          8.2650    2.4740   53.4873 H       1  <0>         0.0324
     24 H9          8.7259    1.0038   54.4658 H       1  <0>         0.0324
     25 H10         6.0566    1.4633   57.8168 H       1  <0>         0.0463
     26 H11         6.8493    2.7563   56.8457 H       1  <0>         0.0463
     27 H12         5.3172   -0.2329   54.9451 H       1  <0>         0.0463
     28 H13         6.2788   -0.9591   53.5964 H       1  <0>         0.0463
     29 H14         8.1697    1.1089   51.4797 H       1  <0>         0.0914
     30 H15         8.9792   -1.1011   51.5512 H       1  <0>         0.2001
     31 H16         9.0763   -1.0657   53.1809 H       1  <0>         0.2001
     32 H17         7.6228   -0.9440   52.4465 H       1  <0>         0.2001
     33 H18         6.9416   -2.0669   57.5477 H       1  <0>         0.4373
     34 H19         7.3534   -0.7912   58.6445 H       1  <0>         0.4373
     35 H20         8.7760    1.2049   56.6292 H       1  <0>         0.1528
     36 H21         7.8682   -1.5438   55.1358 H       1  <0>         0.1528
@<TRIPOS>BOND
     1     1     2    1
     2     2     5    1
     3     3     4    1
     4     3     6    1
     5     4     7    1
     6     5    12    1
     7     6    13    1
     8     7     8    1
     9     7    10    1
    10     8    14    1
    11     8    15    2
    12     9    11    2
    13     9    12    1
    14     9    13    1
    15     1    16    1
    16     1    17    1
    17     1    18    1
    18     2    19    1
    19     2    20    1
    20     3    21    1
    21     3    22    1
    22     4    23    1
    23     4    24    1
    24     5    25    1
    25     5    26    1
    26     6    27    1
    27     6    28    1
    28     7    29    1
    29    10    30    1
    30    10    31    1
    31    10    32    1
    32    11    33    1
    33    11    34    1
    34    12    35    1
    35    13    36    1
@<TRIPOS>SUBSTRUCTURE
     1 <0>         1 TEMP              0 ****  ****    0 ROOT

