
##########                                Name:        3AR_902_1QW6
##########                    Molecular_Weight:             217.291
##########                DOCK_Rotatable_Bonds:                   9
##########                       Formal_Charge:              0.9998
##########                     HBond_Acceptors:                   6
##########                        HBond_Donors:                   7
##########                         Heavy_Atoms:                  15
##########                            HA_RMSDs:               7.571
##########                            HA_RMSDh:               7.510
##########                            HA_RMSDm:               6.392
##########                          Grid_Score:         -142.154068
##########                     Grid_vdw_energy:          -23.182489
##########                      Grid_es_energy:         -118.971573
##########           Internal_energy_repulsive:            5.832881

@<TRIPOS>MOLECULE
3AR_902_1QW6
 36 35 1 0 0
SMALL
USER_CHARGES


@<TRIPOS>ATOM
      1 C1          2.9853    1.6540   56.9105 C.3     1  <0>        -0.0639
      2 C2          3.4322    0.7236   58.0423 C.3     1  <0>        -0.0401
      3 C3          6.5525    0.6694   54.1207 C.3     1  <0>        -0.0318
      4 C4          8.0742    0.9251   53.9827 C.3     1  <0>        -0.0029
      5 C5          4.2529   -0.4688   57.5400 C.3     1  <0>         0.0152
      6 C6          6.1473   -0.7480   54.5863 C.3     1  <0>         0.0156
      7 C7          8.7815    0.4454   52.6947 C.3     1  <0>         0.0160
      8 C8         10.1764    1.0299   52.6247 C.2     1  <0>         0.0894
      9 C9          6.5926   -1.0027   57.0572 C.cat   1  <0>         0.3240
     10 N1          8.8688   -0.9907   52.6444 N.4     1  <0>         0.2249
     11 N2          7.2140   -1.6581   57.9891 N.pl3   1  <0>        -0.2027
     12 N3          5.6370   -0.1039   57.3805 N.pl3   1  <0>        -0.2792
     13 N4          6.9219   -1.2140   55.7498 N.pl3   1  <0>        -0.2792
     14 O1         11.1807    0.5535   53.4105 O.co2   1  <0>        -0.5442
     15 O2         10.4419    2.0778   51.8017 O.co2   1  <0>        -0.5442
     16 H1          2.4027    2.4880   57.3290 H       1  <0>         0.0230
     17 H2          3.8701    2.0497   56.3904 H       1  <0>         0.0230
     18 H3          2.3621    1.0925   56.1988 H       1  <0>         0.0230
     19 H4          4.0530    1.3019   58.7423 H       1  <0>         0.0278
     20 H5          2.5353    0.3386   58.5497 H       1  <0>         0.0278
     21 H6          6.1649    1.3829   54.8627 H       1  <0>         0.0282
     22 H7          6.1004    0.8325   53.1312 H       1  <0>         0.0282
     23 H8          8.2169    2.0146   54.0339 H       1  <0>         0.0324
     24 H9          8.5590    0.4040   54.8215 H       1  <0>         0.0324
     25 H10         4.1794   -1.2884   58.2699 H       1  <0>         0.0463
     26 H11         3.8535   -0.7959   56.5686 H       1  <0>         0.0463
     27 H12         5.0831   -0.7298   54.8641 H       1  <0>         0.0463
     28 H13         6.3181   -1.4473   53.7546 H       1  <0>         0.0463
     29 H14         8.1837    0.7887   51.8375 H       1  <0>         0.0914
     30 H15         9.3301   -1.2677   51.8015 H       1  <0>         0.2001
     31 H16         9.3884   -1.3207   53.4325 H       1  <0>         0.2001
     32 H17         7.9485   -1.3814   52.6644 H       1  <0>         0.2001
     33 H18         7.9295   -2.3135   57.7474 H       1  <0>         0.4373
     34 H19         6.9772   -1.5077   58.9490 H       1  <0>         0.4373
     35 H20         5.9009    0.8514   57.5143 H       1  <0>         0.1528
     36 H21         7.7595   -1.7285   55.5660 H       1  <0>         0.1528
@<TRIPOS>BOND
     1     1     2    1
     2     2     5    1
     3     3     4    1
     4     3     6    1
     5     4     7    1
     6     5    12    1
     7     6    13    1
     8     7     8    1
     9     7    10    1
    10     8    14    1
    11     8    15    2
    12     9    11    2
    13     9    12    1
    14     9    13    1
    15     1    16    1
    16     1    17    1
    17     1    18    1
    18     2    19    1
    19     2    20    1
    20     3    21    1
    21     3    22    1
    22     4    23    1
    23     4    24    1
    24     5    25    1
    25     5    26    1
    26     6    27    1
    27     6    28    1
    28     7    29    1
    29    10    30    1
    30    10    31    1
    31    10    32    1
    32    11    33    1
    33    11    34    1
    34    12    35    1
    35    13    36    1
@<TRIPOS>SUBSTRUCTURE
     1 <0>         1 TEMP              0 ****  ****    0 ROOT

