
##########                                Name:        3AR_902_1QW6
##########                    Molecular_Weight:             217.291
##########                DOCK_Rotatable_Bonds:                   9
##########                       Formal_Charge:              0.9998
##########                     HBond_Acceptors:                   6
##########                        HBond_Donors:                   7
##########                         Heavy_Atoms:                  15
##########                            HA_RMSDs:               7.554
##########                            HA_RMSDh:               7.526
##########                            HA_RMSDm:               6.381
##########                          Grid_Score:         -144.869904
##########                     Grid_vdw_energy:          -25.491436
##########                      Grid_es_energy:         -119.378464
##########           Internal_energy_repulsive:            5.101265

@<TRIPOS>MOLECULE
3AR_902_1QW6
 36 35 1 0 0
SMALL
USER_CHARGES


@<TRIPOS>ATOM
      1 C1          3.1561    1.0787   57.6798 C.3     1  <0>        -0.0639
      2 C2          3.2083   -0.3387   58.2584 C.3     1  <0>        -0.0401
      3 C3          6.6581    1.0196   54.4358 C.3     1  <0>        -0.0318
      4 C4          8.1757    0.9370   54.1354 C.3     1  <0>        -0.0029
      5 C5          4.1514   -1.2621   57.4802 C.3     1  <0>         0.0152
      6 C6          5.9043   -0.3296   54.4721 C.3     1  <0>         0.0156
      7 C7          8.6170    0.5181   52.7145 C.3     1  <0>         0.0160
      8 C8          9.9101    1.2160   52.3498 C.2     1  <0>         0.0894
      9 C9          6.4821   -1.2917   56.7324 C.cat   1  <0>         0.3240
     10 N1          8.8065   -0.9059   52.6192 N.4     1  <0>         0.2249
     11 N2          7.4292   -1.8531   57.4195 N.pl3   1  <0>        -0.2027
     12 N3          5.4603   -0.6727   57.3637 N.pl3   1  <0>        -0.2792
     13 N4          6.5330   -1.3152   55.3689 N.pl3   1  <0>        -0.2792
     14 O1         11.1178    0.6679   52.6563 O.co2   1  <0>        -0.5442
     15 O2          9.8877    2.4324   51.7449 O.co2   1  <0>        -0.5442
     16 H1          2.4663    1.6937   58.2764 H       1  <0>         0.0230
     17 H2          4.1617    1.5234   57.7083 H       1  <0>         0.0230
     18 H3          2.8028    1.0368   56.6389 H       1  <0>         0.0230
     19 H4          3.5631   -0.2764   59.2977 H       1  <0>         0.0278
     20 H5          2.1954   -0.7662   58.2216 H       1  <0>         0.0278
     21 H6          6.5434    1.4874   55.4248 H       1  <0>         0.0282
     22 H7          6.1991    1.6318   53.6455 H       1  <0>         0.0282
     23 H8          8.5870    1.9421   54.3099 H       1  <0>         0.0324
     24 H9          8.5942    0.1920   54.8281 H       1  <0>         0.0324
     25 H10         4.2354   -2.2210   58.0127 H       1  <0>         0.0463
     26 H11         3.7412   -1.4280   56.4731 H       1  <0>         0.0463
     27 H12         4.8796   -0.1439   54.8264 H       1  <0>         0.0463
     28 H13         5.8922   -0.7466   53.4543 H       1  <0>         0.0463
     29 H14         7.8188    0.8111   52.0166 H       1  <0>         0.0914
     30 H15         9.0909   -1.1434   51.6904 H       1  <0>         0.2001
     31 H16         9.5124   -1.1921   53.2672 H       1  <0>         0.2001
     32 H17         7.9480   -1.3714   52.8342 H       1  <0>         0.2001
     33 H18         8.1906   -2.2996   56.9494 H       1  <0>         0.4373
     34 H19         7.3975   -1.8393   58.4189 H       1  <0>         0.4373
     35 H20         5.6190    0.2292   57.7654 H       1  <0>         0.1528
     36 H21         7.0398   -2.0644   54.9425 H       1  <0>         0.1528
@<TRIPOS>BOND
     1     1     2    1
     2     2     5    1
     3     3     4    1
     4     3     6    1
     5     4     7    1
     6     5    12    1
     7     6    13    1
     8     7     8    1
     9     7    10    1
    10     8    14    1
    11     8    15    2
    12     9    11    2
    13     9    12    1
    14     9    13    1
    15     1    16    1
    16     1    17    1
    17     1    18    1
    18     2    19    1
    19     2    20    1
    20     3    21    1
    21     3    22    1
    22     4    23    1
    23     4    24    1
    24     5    25    1
    25     5    26    1
    26     6    27    1
    27     6    28    1
    28     7    29    1
    29    10    30    1
    30    10    31    1
    31    10    32    1
    32    11    33    1
    33    11    34    1
    34    12    35    1
    35    13    36    1
@<TRIPOS>SUBSTRUCTURE
     1 <0>         1 TEMP              0 ****  ****    0 ROOT

