
##########                                Name:        855_857_3HMM
##########                    Molecular_Weight:             313.362
##########                DOCK_Rotatable_Bonds:                   3
##########                       Formal_Charge:        -0.000299782
##########                     HBond_Acceptors:                   5
##########                        HBond_Donors:                   1
##########                         Heavy_Atoms:                  24
##########                            HA_RMSDs:               0.390
##########                            HA_RMSDh:               0.390
##########                            HA_RMSDm:               0.390
##########                          Grid_Score:          -59.308086
##########                     Grid_vdw_energy:          -57.812164
##########                      Grid_es_energy:           -1.495923
##########           Internal_energy_repulsive:            6.592958

@<TRIPOS>MOLECULE
855_857_3HMM
 39 42 1 0 0
SMALL
USER_CHARGES


@<TRIPOS>ATOM
      1 C1         10.4333   64.2734    5.6332 C.3     1  <0>        -0.0223
      2 C2         17.4118   68.5901    9.5793 C.ar    1  <0>        -0.0610
      3 C3         16.3447   67.9113   10.2096 C.ar    1  <0>        -0.0597
      4 C4         13.4756   63.6319    3.4268 C.ar    1  <0>        -0.0580
      5 C5         17.6183   68.4301    8.1863 C.ar    1  <0>        -0.0493
      6 C6         15.4793   67.0749    9.4456 C.ar    1  <0>        -0.0356
      7 C7         12.1426   63.5784    3.9108 C.ar    1  <0>        -0.0406
      8 C8         14.4519   64.3971    4.1146 C.ar    1  <0>        -0.0326
      9 C9         18.9647   69.0948    3.4171 C.ar    1  <0>        -0.0224
     10 C10        16.7133   68.2149    3.0191 C.ar    1  <0>        -0.0224
     11 C11        18.9509   69.5804    2.1009 C.ar    1  <0>         0.0293
     12 C12        16.7846   68.7348    1.7167 C.ar    1  <0>         0.0293
     13 C13        11.8231   64.2898    5.0825 C.ar    1  <0>         0.0390
     14 C14        17.8345   68.3983    3.9011 C.ar    1  <0>         0.0353
     15 C15        16.7502   67.5807    7.4051 C.ar    1  <0>         0.0405
     16 C16        15.6601   66.8983    8.0561 C.ar    1  <0>         0.0767
     17 C17        14.0602   65.0911    5.2901 C.ar    1  <0>         0.1082
     18 C18        16.8426   67.3313    6.0154 C.ar    1  <0>         0.1346
     19 C19        14.9839   65.9299    6.0593 C.ar    1  <0>         0.1807
     20 N1         17.8825   69.4152    1.2427 N.ar    1  <0>        -0.2631
     21 N2         12.7559   65.0313    5.7593 N.ar    1  <0>        -0.2488
     22 N3         14.7951   66.0897    7.3956 N.ar    1  <0>        -0.2258
     23 N4         15.9771   66.5228    5.3709 N.ar    1  <0>        -0.2103
     24 N5         17.8395   67.9089    5.2199 N.pl3   1  <0>        -0.2988
     25 H1         10.3905   64.8942    6.5403 H       1  <0>         0.0292
     26 H2          9.7366   64.6737    4.8819 H       1  <0>         0.0292
     27 H3         10.1501   63.2401    5.8825 H       1  <0>         0.0292
     28 H4         18.0663   69.2271   10.1558 H       1  <0>         0.0618
     29 H5         16.1846   68.0263   11.2714 H       1  <0>         0.0618
     30 H6         13.7470   63.0891    2.5335 H       1  <0>         0.0619
     31 H7         18.4335   68.9489    7.7039 H       1  <0>         0.0625
     32 H8         14.6665   66.5645    9.9409 H       1  <0>         0.0639
     33 H9         11.3897   63.0042    3.3914 H       1  <0>         0.0635
     34 H10        15.4682   64.4507    3.7533 H       1  <0>         0.0640
     35 H11        19.8256   69.2510    4.0504 H       1  <0>         0.0651
     36 H12        15.8323   67.6868    3.3526 H       1  <0>         0.0651
     37 H13        19.8203   70.1105    1.7409 H       1  <0>         0.0830
     38 H14        15.9403   68.5944    1.0579 H       1  <0>         0.0830
     39 H15        18.7254   67.9887    5.6770 H       1  <0>         0.1536
@<TRIPOS>BOND
     1     1    13    1
     2     2     3   ar
     3     2     5   ar
     4     3     6   ar
     5     4     7   ar
     6     4     8   ar
     7     5    15   ar
     8     6    16   ar
     9     7    13   ar
    10     8    17   ar
    11     9    11   ar
    12     9    14   ar
    13    10    12   ar
    14    10    14   ar
    15    11    20   ar
    16    12    20   ar
    17    13    21   ar
    18    14    24    1
    19    15    16   ar
    20    15    18   ar
    21    16    22   ar
    22    17    19    1
    23    17    21   ar
    24    18    23   ar
    25    18    24    1
    26    19    22   ar
    27    19    23   ar
    28     1    25    1
    29     1    26    1
    30     1    27    1
    31     2    28    1
    32     3    29    1
    33     4    30    1
    34     5    31    1
    35     6    32    1
    36     7    33    1
    37     8    34    1
    38     9    35    1
    39    10    36    1
    40    11    37    1
    41    12    38    1
    42    24    39    1
@<TRIPOS>SUBSTRUCTURE
     1 <0>         1 TEMP              0 ****  ****    0 ROOT

