
##########                                Name:        855_857_3HMM
##########                    Molecular_Weight:             313.362
##########                DOCK_Rotatable_Bonds:                   3
##########                       Formal_Charge:        -0.000299782
##########                     HBond_Acceptors:                   5
##########                        HBond_Donors:                   1
##########                         Heavy_Atoms:                  24
##########                            HA_RMSDs:               0.313
##########                            HA_RMSDh:               0.313
##########                            HA_RMSDm:               0.313
##########                          Grid_Score:          -61.306637
##########                     Grid_vdw_energy:          -59.614712
##########                      Grid_es_energy:           -1.691926
##########           Internal_energy_repulsive:            5.994627

@<TRIPOS>MOLECULE
855_857_3HMM
 39 42 1 0 0
SMALL
USER_CHARGES


@<TRIPOS>ATOM
      1 C1         10.5234   64.0642    5.5908 C.3     1  <0>        -0.0223
      2 C2         17.2530   68.5969    9.7352 C.ar    1  <0>        -0.0610
      3 C3         16.2795   67.7672   10.3356 C.ar    1  <0>        -0.0597
      4 C4         13.5667   63.7988    3.3099 C.ar    1  <0>        -0.0580
      5 C5         17.4178   68.5778    8.3276 C.ar    1  <0>        -0.0493
      6 C6         15.4658   66.9203    9.5276 C.ar    1  <0>        -0.0356
      7 C7         12.2500   63.6135    3.8055 C.ar    1  <0>        -0.0406
      8 C8         14.4950   64.5893    4.0348 C.ar    1  <0>        -0.0326
      9 C9         18.8291   69.0914    3.3809 C.ar    1  <0>        -0.0224
     10 C10        16.4658   68.5134    3.0942 C.ar    1  <0>        -0.0224
     11 C11        18.8670   69.3945    2.0116 C.ar    1  <0>         0.0293
     12 C12        16.5932   68.8391    1.7343 C.ar    1  <0>         0.0293
     13 C13        11.8984   64.2213    5.0255 C.ar    1  <0>         0.0390
     14 C14        17.6155   68.6423    3.9487 C.ar    1  <0>         0.0353
     15 C15        16.6020   67.7193    7.5014 C.ar    1  <0>         0.0405
     16 C16        15.6068   66.8819    8.1229 C.ar    1  <0>         0.0767
     17 C17        14.0728   65.1739    5.2582 C.ar    1  <0>         0.1082
     18 C18        16.6617   67.6003    6.0928 C.ar    1  <0>         0.1346
     19 C19        14.9445   66.0283    6.0698 C.ar    1  <0>         0.1807
     20 N1         17.7726   69.2785    1.1785 N.ar    1  <0>        -0.2631
     21 N2         12.7849   64.9855    5.7383 N.ar    1  <0>        -0.2488
     22 N3         14.7950   66.0537    7.4203 N.ar    1  <0>        -0.2258
     23 N4         15.8501   66.7708    5.4062 N.ar    1  <0>        -0.2103
     24 N5         17.5683   68.3371    5.3210 N.pl3   1  <0>        -0.2988
     25 H1         10.4499   64.6198    6.5374 H       1  <0>         0.0292
     26 H2          9.7860   64.4587    4.8761 H       1  <0>         0.0292
     27 H3         10.3222   62.9985    5.7748 H       1  <0>         0.0292
     28 H4         17.8679   69.2419   10.3454 H       1  <0>         0.0618
     29 H5         16.1518   67.7746   11.4080 H       1  <0>         0.0618
     30 H6         13.8625   63.3373    2.3794 H       1  <0>         0.0619
     31 H7         18.1615   69.2120    7.8681 H       1  <0>         0.0625
     32 H8         14.7243   66.2935   10.0006 H       1  <0>         0.0639
     33 H9         11.5332   63.0191    3.2586 H       1  <0>         0.0635
     34 H10        15.4981   64.7428    3.6653 H       1  <0>         0.0640
     35 H11        19.7134   69.1996    3.9914 H       1  <0>         0.0651
     36 H12        15.5213   68.1721    3.4914 H       1  <0>         0.0651
     37 H13        19.7999   69.7359    1.5877 H       1  <0>         0.0830
     38 H14        15.7272   68.7405    1.0966 H       1  <0>         0.0830
     39 H15        18.3283   68.7199    5.8463 H       1  <0>         0.1536
@<TRIPOS>BOND
     1     1    13    1
     2     2     3   ar
     3     2     5   ar
     4     3     6   ar
     5     4     7   ar
     6     4     8   ar
     7     5    15   ar
     8     6    16   ar
     9     7    13   ar
    10     8    17   ar
    11     9    11   ar
    12     9    14   ar
    13    10    12   ar
    14    10    14   ar
    15    11    20   ar
    16    12    20   ar
    17    13    21   ar
    18    14    24    1
    19    15    16   ar
    20    15    18   ar
    21    16    22   ar
    22    17    19    1
    23    17    21   ar
    24    18    23   ar
    25    18    24    1
    26    19    22   ar
    27    19    23   ar
    28     1    25    1
    29     1    26    1
    30     1    27    1
    31     2    28    1
    32     3    29    1
    33     4    30    1
    34     5    31    1
    35     6    32    1
    36     7    33    1
    37     8    34    1
    38     9    35    1
    39    10    36    1
    40    11    37    1
    41    12    38    1
    42    24    39    1
@<TRIPOS>SUBSTRUCTURE
     1 <0>         1 TEMP              0 ****  ****    0 ROOT

