
##########                                Name:        855_857_3HMM
##########                    Molecular_Weight:             313.362
##########                DOCK_Rotatable_Bonds:                   3
##########                       Formal_Charge:        -0.000299782
##########                     HBond_Acceptors:                   5
##########                        HBond_Donors:                   1
##########                         Heavy_Atoms:                  24
##########                            HA_RMSDs:               0.612
##########                            HA_RMSDh:               0.612
##########                            HA_RMSDm:               0.612
##########                          Grid_Score:          -60.938774
##########                     Grid_vdw_energy:          -59.700832
##########                      Grid_es_energy:           -1.237940
##########           Internal_energy_repulsive:            7.095760

@<TRIPOS>MOLECULE
855_857_3HMM
 39 42 1 0 0
SMALL
USER_CHARGES


@<TRIPOS>ATOM
      1 C1         10.7025   64.1421    5.9313 C.3     1  <0>        -0.0223
      2 C2         17.5238   68.6387    9.9643 C.ar    1  <0>        -0.0610
      3 C3         16.5700   67.7960   10.5782 C.ar    1  <0>        -0.0597
      4 C4         13.6878   63.9164    3.5708 C.ar    1  <0>        -0.0580
      5 C5         17.6511   68.6408    8.5527 C.ar    1  <0>        -0.0493
      6 C6         15.7385   66.9574    9.7797 C.ar    1  <0>        -0.0356
      7 C7         12.3845   63.7204    4.0971 C.ar    1  <0>        -0.0406
      8 C8         14.6319   64.7002    4.2824 C.ar    1  <0>        -0.0326
      9 C9         18.9618   69.2188    3.5940 C.ar    1  <0>        -0.0224
     10 C10        16.6416   68.4910    3.2960 C.ar    1  <0>        -0.0224
     11 C11        19.0000   69.4850    2.2170 C.ar    1  <0>         0.0293
     12 C12        16.7677   68.7855    1.9289 C.ar    1  <0>         0.0293
     13 C13        12.0623   64.3109    5.3335 C.ar    1  <0>         0.0390
     14 C14        17.7698   68.7133    4.1601 C.ar    1  <0>         0.0353
     15 C15        16.8171   67.7908    7.7360 C.ar    1  <0>         0.0405
     16 C16        15.8422   66.9401    8.3714 C.ar    1  <0>         0.0767
     17 C17        14.2392   65.2672    5.5238 C.ar    1  <0>         0.1082
     18 C18        16.8397   67.6925    6.3247 C.ar    1  <0>         0.1346
     19 C19        15.1288   66.1135    6.3243 C.ar    1  <0>         0.1807
     20 N1         17.9260   69.2796    1.3747 N.ar    1  <0>        -0.2631
     21 N2         12.9644   65.0684    6.0337 N.ar    1  <0>        -0.2488
     22 N3         15.0152   66.1187    7.6786 N.ar    1  <0>        -0.2258
     23 N4         16.0134   66.8696    5.6478 N.ar    1  <0>        -0.2103
     24 N5         17.7224   68.4445    5.5400 N.pl3   1  <0>        -0.2988
     25 H1         10.6515   64.6848    6.8868 H       1  <0>         0.0292
     26 H2          9.9462   64.5436    5.2409 H       1  <0>         0.0292
     27 H3         10.5091   63.0734    6.1061 H       1  <0>         0.0292
     28 H4         18.1521   69.2775   10.5673 H       1  <0>         0.0618
     29 H5         16.4709   67.7873   11.6536 H       1  <0>         0.0618
     30 H6         13.9612   63.4682    2.6271 H       1  <0>         0.0619
     31 H7         18.3797   69.2849    8.0830 H       1  <0>         0.0625
     32 H8         15.0124   66.3205   10.2631 H       1  <0>         0.0639
     33 H9         11.6558   63.1311    3.5606 H       1  <0>         0.0635
     34 H10        15.6249   64.8617    3.8898 H       1  <0>         0.0640
     35 H11        19.8296   69.3975    4.2116 H       1  <0>         0.0651
     36 H12        15.7141   68.1045    3.6917 H       1  <0>         0.0651
     37 H13        19.9163   69.8703    1.7946 H       1  <0>         0.0830
     38 H14        15.9179   68.6167    1.2841 H       1  <0>         0.0830
     39 H15        18.4611   68.8728    6.0605 H       1  <0>         0.1536
@<TRIPOS>BOND
     1     1    13    1
     2     2     3   ar
     3     2     5   ar
     4     3     6   ar
     5     4     7   ar
     6     4     8   ar
     7     5    15   ar
     8     6    16   ar
     9     7    13   ar
    10     8    17   ar
    11     9    11   ar
    12     9    14   ar
    13    10    12   ar
    14    10    14   ar
    15    11    20   ar
    16    12    20   ar
    17    13    21   ar
    18    14    24    1
    19    15    16   ar
    20    15    18   ar
    21    16    22   ar
    22    17    19    1
    23    17    21   ar
    24    18    23   ar
    25    18    24    1
    26    19    22   ar
    27    19    23   ar
    28     1    25    1
    29     1    26    1
    30     1    27    1
    31     2    28    1
    32     3    29    1
    33     4    30    1
    34     5    31    1
    35     6    32    1
    36     7    33    1
    37     8    34    1
    38     9    35    1
    39    10    36    1
    40    11    37    1
    41    12    38    1
    42    24    39    1
@<TRIPOS>SUBSTRUCTURE
     1 <0>         1 TEMP              0 ****  ****    0 ROOT

