
##########                                Name:        855_857_3HMM
##########                    Molecular_Weight:             313.362
##########                DOCK_Rotatable_Bonds:                   3
##########                       Formal_Charge:        -0.000299782
##########                     HBond_Acceptors:                   5
##########                        HBond_Donors:                   1
##########                         Heavy_Atoms:                  24
##########                            HA_RMSDs:               0.471
##########                            HA_RMSDh:               0.471
##########                            HA_RMSDm:               0.471
##########                          Grid_Score:          -58.914093
##########                     Grid_vdw_energy:          -57.708672
##########                      Grid_es_energy:           -1.205422
##########           Internal_energy_repulsive:            4.984511

@<TRIPOS>MOLECULE
855_857_3HMM
 39 42 1 0 0
SMALL
USER_CHARGES


@<TRIPOS>ATOM
      1 C1         10.5654   64.2490    5.6451 C.3     1  <0>        -0.0223
      2 C2         17.4883   68.5239    9.7461 C.ar    1  <0>        -0.0610
      3 C3         16.4549   67.7804   10.3594 C.ar    1  <0>        -0.0597
      4 C4         13.6306   63.6938    3.4470 C.ar    1  <0>        -0.0580
      5 C5         17.6769   68.4365    8.3441 C.ar    1  <0>        -0.0493
      6 C6         15.6052   66.9519    9.5696 C.ar    1  <0>        -0.0356
      7 C7         12.2951   63.6133    3.9200 C.ar    1  <0>        -0.0406
      8 C8         14.5926   64.4554    4.1586 C.ar    1  <0>        -0.0326
      9 C9         19.0229   69.0839    3.4713 C.ar    1  <0>        -0.0224
     10 C10        16.6272   68.6152    3.2639 C.ar    1  <0>        -0.0224
     11 C11        18.9817   69.5985    2.1667 C.ar    1  <0>         0.0293
     12 C12        16.6767   69.1486    1.9660 C.ar    1  <0>         0.0293
     13 C13        11.9587   64.2946    5.1049 C.ar    1  <0>         0.0390
     14 C14        17.8342   68.5799    4.0455 C.ar    1  <0>         0.0353
     15 C15        16.8247   67.5958    7.5366 C.ar    1  <0>         0.0405
     16 C16        15.7688   66.8469    8.1707 C.ar    1  <0>         0.0767
     17 C17        14.1842   65.1183    5.3463 C.ar    1  <0>         0.1082
     18 C18        16.9023   67.4151    6.1354 C.ar    1  <0>         0.1346
     19 C19        15.0921   65.9509    6.1405 C.ar    1  <0>         0.1807
     20 N1         17.8318   69.6419    1.4044 N.ar    1  <0>        -0.2631
     21 N2         12.8776   65.0321    5.8046 N.ar    1  <0>        -0.2488
     22 N3         14.9203   66.0413    7.4856 N.ar    1  <0>        -0.2258
     23 N4         16.0535   66.6088    5.4662 N.ar    1  <0>        -0.2103
     24 N5         17.8662   68.0629    5.3533 N.pl3   1  <0>        -0.2988
     25 H1         10.5086   64.8489    6.5653 H       1  <0>         0.0292
     26 H2          9.8691   64.6574    4.8978 H       1  <0>         0.0292
     27 H3         10.2932   63.2071    5.8694 H       1  <0>         0.0292
     28 H4         18.1307   69.1550   10.3423 H       1  <0>         0.0618
     29 H5         16.3086   67.8400   11.4277 H       1  <0>         0.0618
     30 H6         13.9149   63.1744    2.5438 H       1  <0>         0.0619
     31 H7         18.4663   69.0048    7.8748 H       1  <0>         0.0625
     32 H8         14.8182   66.3914   10.0522 H       1  <0>         0.0639
     33 H9         11.5529   63.0417    3.3826 H       1  <0>         0.0635
     34 H10        15.6106   64.5294    3.8058 H       1  <0>         0.0640
     35 H11        19.9484   69.0731    4.0278 H       1  <0>         0.0651
     36 H12        15.6995   68.2381    3.6682 H       1  <0>         0.0651
     37 H13        19.8961   69.9803    1.7371 H       1  <0>         0.0830
     38 H14        15.7680   69.1727    1.3829 H       1  <0>         0.0830
     39 H15        18.7466   68.1806    5.8128 H       1  <0>         0.1536
@<TRIPOS>BOND
     1     1    13    1
     2     2     3   ar
     3     2     5   ar
     4     3     6   ar
     5     4     7   ar
     6     4     8   ar
     7     5    15   ar
     8     6    16   ar
     9     7    13   ar
    10     8    17   ar
    11     9    11   ar
    12     9    14   ar
    13    10    12   ar
    14    10    14   ar
    15    11    20   ar
    16    12    20   ar
    17    13    21   ar
    18    14    24    1
    19    15    16   ar
    20    15    18   ar
    21    16    22   ar
    22    17    19    1
    23    17    21   ar
    24    18    23   ar
    25    18    24    1
    26    19    22   ar
    27    19    23   ar
    28     1    25    1
    29     1    26    1
    30     1    27    1
    31     2    28    1
    32     3    29    1
    33     4    30    1
    34     5    31    1
    35     6    32    1
    36     7    33    1
    37     8    34    1
    38     9    35    1
    39    10    36    1
    40    11    37    1
    41    12    38    1
    42    24    39    1
@<TRIPOS>SUBSTRUCTURE
     1 <0>         1 TEMP              0 ****  ****    0 ROOT

