
##########                                Name:        855_857_3HMM
##########                    Molecular_Weight:             313.362
##########                DOCK_Rotatable_Bonds:                   3
##########                       Formal_Charge:        -0.000299782
##########                     HBond_Acceptors:                   5
##########                        HBond_Donors:                   1
##########                         Heavy_Atoms:                  24
##########                            HA_RMSDs:               0.421
##########                            HA_RMSDh:               0.421
##########                            HA_RMSDm:               0.421
##########                          Grid_Score:          -57.894886
##########                     Grid_vdw_energy:          -56.388676
##########                      Grid_es_energy:           -1.506212
##########           Internal_energy_repulsive:            8.289883

@<TRIPOS>MOLECULE
855_857_3HMM
 39 42 1 0 0
SMALL
USER_CHARGES


@<TRIPOS>ATOM
      1 C1         10.5968   64.0628    5.5804 C.3     1  <0>        -0.0223
      2 C2         17.3137   68.5764    9.7292 C.ar    1  <0>        -0.0610
      3 C3         16.2759   67.8117   10.3079 C.ar    1  <0>        -0.0597
      4 C4         13.5734   63.9514    3.2008 C.ar    1  <0>        -0.0580
      5 C5         17.5288   68.5195    8.3295 C.ar    1  <0>        -0.0493
      6 C6         15.4483   66.9923    9.4858 C.ar    1  <0>        -0.0356
      7 C7         12.2743   63.7245    3.7248 C.ar    1  <0>        -0.0406
      8 C8         14.5138   64.7166    3.9371 C.ar    1  <0>        -0.0326
      9 C9         18.9934   69.2307    3.4925 C.ar    1  <0>        -0.0224
     10 C10        16.7475   68.3474    3.0714 C.ar    1  <0>        -0.0224
     11 C11        19.0416   69.6073    2.1418 C.ar    1  <0>         0.0293
     12 C12        16.8807   68.7584    1.7353 C.ar    1  <0>         0.0293
     13 C13        11.9524   64.2658    4.9836 C.ar    1  <0>         0.0390
     14 C14        17.8337   68.5891    3.9827 C.ar    1  <0>         0.0353
     15 C15        16.6992   67.6882    7.4893 C.ar    1  <0>         0.0405
     16 C16        15.6386   66.9174    8.0884 C.ar    1  <0>         0.0767
     17 C17        14.1217   65.2337    5.2004 C.ar    1  <0>         0.1082
     18 C18        16.8041   67.5370    6.0865 C.ar    1  <0>         0.1346
     19 C19        15.0074   66.0575    6.0281 C.ar    1  <0>         0.1807
     20 N1         18.0075   69.3850    1.2550 N.ar    1  <0>        -0.2631
     21 N2         12.8509   65.0047    5.7078 N.ar    1  <0>        -0.2488
     22 N3         14.8100   66.1188    7.3713 N.ar    1  <0>        -0.2258
     23 N4         15.9751   66.7374    5.3854 N.ar    1  <0>        -0.2103
     24 N5         17.7765   68.2089    5.3358 N.pl3   1  <0>        -0.2988
     25 H1         10.5453   64.5693    6.5555 H       1  <0>         0.0292
     26 H2          9.8339   64.4830    4.9084 H       1  <0>         0.0292
     27 H3         10.4134   62.9867    5.7162 H       1  <0>         0.0292
     28 H4         17.9394   69.2006   10.3500 H       1  <0>         0.0618
     29 H5         16.1095   67.8480   11.3744 H       1  <0>         0.0618
     30 H6         13.8465   63.5409    2.2400 H       1  <0>         0.0619
     31 H7         18.3217   69.1040    7.8866 H       1  <0>         0.0625
     32 H8         14.6576   66.4154    9.9422 H       1  <0>         0.0639
     33 H9         11.5483   63.1489    3.1698 H       1  <0>         0.0635
     34 H10        15.5036   64.9013    3.5467 H       1  <0>         0.0640
     35 H11        19.8294   69.4280    4.1472 H       1  <0>         0.0651
     36 H12        15.8455   67.8586    3.4087 H       1  <0>         0.0651
     37 H13        19.9332   70.0961    1.7774 H       1  <0>         0.0830
     38 H14        16.0625   68.5745    1.0547 H       1  <0>         0.0830
     39 H15        18.5858   68.4684    5.8628 H       1  <0>         0.1536
@<TRIPOS>BOND
     1     1    13    1
     2     2     3   ar
     3     2     5   ar
     4     3     6   ar
     5     4     7   ar
     6     4     8   ar
     7     5    15   ar
     8     6    16   ar
     9     7    13   ar
    10     8    17   ar
    11     9    11   ar
    12     9    14   ar
    13    10    12   ar
    14    10    14   ar
    15    11    20   ar
    16    12    20   ar
    17    13    21   ar
    18    14    24    1
    19    15    16   ar
    20    15    18   ar
    21    16    22   ar
    22    17    19    1
    23    17    21   ar
    24    18    23   ar
    25    18    24    1
    26    19    22   ar
    27    19    23   ar
    28     1    25    1
    29     1    26    1
    30     1    27    1
    31     2    28    1
    32     3    29    1
    33     4    30    1
    34     5    31    1
    35     6    32    1
    36     7    33    1
    37     8    34    1
    38     9    35    1
    39    10    36    1
    40    11    37    1
    41    12    38    1
    42    24    39    1
@<TRIPOS>SUBSTRUCTURE
     1 <0>         1 TEMP              0 ****  ****    0 ROOT

