
##########                                Name:        855_857_3HMM
##########                    Molecular_Weight:             313.362
##########                DOCK_Rotatable_Bonds:                   3
##########                       Formal_Charge:        -0.000299782
##########                     HBond_Acceptors:                   5
##########                        HBond_Donors:                   1
##########                         Heavy_Atoms:                  24
##########                            HA_RMSDs:               0.272
##########                            HA_RMSDh:               0.272
##########                            HA_RMSDm:               0.272
##########                          Grid_Score:          -61.136639
##########                     Grid_vdw_energy:          -59.382061
##########                      Grid_es_energy:           -1.754578
##########           Internal_energy_repulsive:            5.146185

@<TRIPOS>MOLECULE
855_857_3HMM
 39 42 1 0 0
SMALL
USER_CHARGES


@<TRIPOS>ATOM
      1 C1         10.4529   64.1422    5.5978 C.3     1  <0>        -0.0223
      2 C2         17.2633   68.6118    9.6976 C.ar    1  <0>        -0.0610
      3 C3         16.3015   67.7816   10.3160 C.ar    1  <0>        -0.0597
      4 C4         13.5237   63.7217    3.3778 C.ar    1  <0>        -0.0580
      5 C5         17.4083   68.5860    8.2880 C.ar    1  <0>        -0.0493
      6 C6         15.4798   66.9274    9.5240 C.ar    1  <0>        -0.0356
      7 C7         12.1953   63.5861    3.8581 C.ar    1  <0>        -0.0406
      8 C8         14.4598   64.5152    4.0891 C.ar    1  <0>        -0.0326
      9 C9         18.7347   69.0598    3.3040 C.ar    1  <0>        -0.0224
     10 C10        16.3359   68.6039    3.1048 C.ar    1  <0>        -0.0224
     11 C11        18.7324   69.3876    1.9398 C.ar    1  <0>         0.0293
     12 C12        16.4244   68.9498    1.7468 C.ar    1  <0>         0.0293
     13 C13        11.8400   64.2457    5.0497 C.ar    1  <0>         0.0390
     14 C14        17.5242   68.6596    3.9133 C.ar    1  <0>         0.0353
     15 C15        16.5842   67.7201    7.4778 C.ar    1  <0>         0.0405
     16 C16        15.6011   66.8822    8.1177 C.ar    1  <0>         0.0767
     17 C17        14.0333   65.1536    5.2839 C.ar    1  <0>         0.1082
     18 C18        16.6245   67.5939    6.0692 C.ar    1  <0>         0.1346
     19 C19        14.9131   66.0154    6.0786 C.ar    1  <0>         0.1807
     20 N1         17.6009   69.3417    1.1507 N.ar    1  <0>        -0.2631
     21 N2         12.7339   65.0135    5.7492 N.ar    1  <0>        -0.2488
     22 N3         14.7826   66.0474    7.4309 N.ar    1  <0>        -0.2258
     23 N4         15.8064   66.7578    5.3984 N.ar    1  <0>        -0.2103
     24 N5         17.5172   68.3301    5.2808 N.pl3   1  <0>        -0.2988
     25 H1         10.3785   64.7331    6.5226 H       1  <0>         0.0292
     26 H2          9.7367   64.5283    4.8575 H       1  <0>         0.0292
     27 H3         10.2228   63.0889    5.8163 H       1  <0>         0.0292
     28 H4         17.8842   69.2623   10.2957 H       1  <0>         0.0618
     29 H5         16.1889   67.7941   11.3901 H       1  <0>         0.0618
     30 H6         13.8225   63.2200    2.4693 H       1  <0>         0.0619
     31 H7         18.1430   69.2206    7.8147 H       1  <0>         0.0625
     32 H8         14.7474   66.3003   10.0107 H       1  <0>         0.0639
     33 H9         11.4727   62.9897    3.3211 H       1  <0>         0.0635
     34 H10        15.4720   64.6312    3.7309 H       1  <0>         0.0640
     35 H11        19.6472   69.1126    3.8794 H       1  <0>         0.0651
     36 H12        15.3925   68.3015    3.5345 H       1  <0>         0.0651
     37 H13        19.6633   69.6913    1.4840 H       1  <0>         0.0830
     38 H14        15.5296   68.9062    1.1437 H       1  <0>         0.0830
     39 H15        18.3004   68.6910    5.7873 H       1  <0>         0.1536
@<TRIPOS>BOND
     1     1    13    1
     2     2     3   ar
     3     2     5   ar
     4     3     6   ar
     5     4     7   ar
     6     4     8   ar
     7     5    15   ar
     8     6    16   ar
     9     7    13   ar
    10     8    17   ar
    11     9    11   ar
    12     9    14   ar
    13    10    12   ar
    14    10    14   ar
    15    11    20   ar
    16    12    20   ar
    17    13    21   ar
    18    14    24    1
    19    15    16   ar
    20    15    18   ar
    21    16    22   ar
    22    17    19    1
    23    17    21   ar
    24    18    23   ar
    25    18    24    1
    26    19    22   ar
    27    19    23   ar
    28     1    25    1
    29     1    26    1
    30     1    27    1
    31     2    28    1
    32     3    29    1
    33     4    30    1
    34     5    31    1
    35     6    32    1
    36     7    33    1
    37     8    34    1
    38     9    35    1
    39    10    36    1
    40    11    37    1
    41    12    38    1
    42    24    39    1
@<TRIPOS>SUBSTRUCTURE
     1 <0>         1 TEMP              0 ****  ****    0 ROOT

