
##########                                Name:        855_857_3HMM
##########                    Molecular_Weight:             313.362
##########                DOCK_Rotatable_Bonds:                   3
##########                       Formal_Charge:        -0.000299782
##########                     HBond_Acceptors:                   5
##########                        HBond_Donors:                   1
##########                         Heavy_Atoms:                  24
##########                            HA_RMSDs:               0.474
##########                            HA_RMSDh:               0.474
##########                            HA_RMSDm:               0.474
##########                          Grid_Score:          -61.591278
##########                     Grid_vdw_energy:          -60.149807
##########                      Grid_es_energy:           -1.441472
##########           Internal_energy_repulsive:            5.442465

@<TRIPOS>MOLECULE
855_857_3HMM
 39 42 1 0 0
SMALL
USER_CHARGES


@<TRIPOS>ATOM
      1 C1         10.6867   64.0631    5.7795 C.3     1  <0>        -0.0223
      2 C2         17.5301   68.5608    9.7739 C.ar    1  <0>        -0.0610
      3 C3         16.5735   67.7266   10.3949 C.ar    1  <0>        -0.0597
      4 C4         13.6697   63.8061    3.4193 C.ar    1  <0>        -0.0580
      5 C5         17.6562   68.5519    8.3623 C.ar    1  <0>        -0.0493
      6 C6         15.7379   66.8854    9.6034 C.ar    1  <0>        -0.0356
      7 C7         12.3659   63.6199    3.9478 C.ar    1  <0>        -0.0406
      8 C8         14.6176   64.5912    4.1243 C.ar    1  <0>        -0.0326
      9 C9         18.9335   69.0682    3.3714 C.ar    1  <0>        -0.0224
     10 C10        16.5394   68.5875    3.1744 C.ar    1  <0>        -0.0224
     11 C11        18.9276   69.3913    2.0061 C.ar    1  <0>         0.0293
     12 C12        16.6241   68.9296    1.8152 C.ar    1  <0>         0.0293
     13 C13        12.0470   64.2213    5.1797 C.ar    1  <0>         0.0390
     14 C14        17.7273   68.6579    3.9824 C.ar    1  <0>         0.0353
     15 C15        16.8180   67.6992    7.5526 C.ar    1  <0>         0.0405
     16 C16        15.8402   66.8572    8.1951 C.ar    1  <0>         0.0767
     17 C17        14.2281   65.1697    5.3614 C.ar    1  <0>         0.1082
     18 C18        16.8390   67.5904    6.1421 C.ar    1  <0>         0.1346
     19 C19        15.1217   66.0183    6.1549 C.ar    1  <0>         0.1807
     20 N1         17.7964   69.3314    1.2174 N.ar    1  <0>        -0.2631
     21 N2         12.9527   64.9803    5.8736 N.ar    1  <0>        -0.2488
     22 N3         15.0094   66.0340    7.5091 N.ar    1  <0>        -0.2258
     23 N4         16.0088   66.7657    5.4720 N.ar    1  <0>        -0.2103
     24 N5         17.7240   68.3330    5.3510 N.pl3   1  <0>        -0.2988
     25 H1         10.6386   64.6135    6.7307 H       1  <0>         0.0292
     26 H2          9.9318   64.4626    5.0863 H       1  <0>         0.0292
     27 H3         10.4888   62.9967    5.9628 H       1  <0>         0.0292
     28 H4         18.1615   69.2015   10.3716 H       1  <0>         0.0618
     29 H5         16.4753   67.7262   11.4704 H       1  <0>         0.0618
     30 H6         13.9407   63.3493    2.4790 H       1  <0>         0.0619
     31 H7         18.3870   69.1896    7.8871 H       1  <0>         0.0625
     32 H8         15.0097   66.2550   10.0921 H       1  <0>         0.0639
     33 H9         11.6343   63.0295    3.4163 H       1  <0>         0.0635
     34 H10        15.6111   64.7453    3.7299 H       1  <0>         0.0640
     35 H11        19.8456   69.1321    3.9463 H       1  <0>         0.0651
     36 H12        15.5991   68.2771    3.6054 H       1  <0>         0.0651
     37 H13        19.8552   69.7027    1.5489 H       1  <0>         0.0830
     38 H14        15.7296   68.8750    1.2125 H       1  <0>         0.0830
     39 H15        18.5036   68.7035    5.8560 H       1  <0>         0.1536
@<TRIPOS>BOND
     1     1    13    1
     2     2     3   ar
     3     2     5   ar
     4     3     6   ar
     5     4     7   ar
     6     4     8   ar
     7     5    15   ar
     8     6    16   ar
     9     7    13   ar
    10     8    17   ar
    11     9    11   ar
    12     9    14   ar
    13    10    12   ar
    14    10    14   ar
    15    11    20   ar
    16    12    20   ar
    17    13    21   ar
    18    14    24    1
    19    15    16   ar
    20    15    18   ar
    21    16    22   ar
    22    17    19    1
    23    17    21   ar
    24    18    23   ar
    25    18    24    1
    26    19    22   ar
    27    19    23   ar
    28     1    25    1
    29     1    26    1
    30     1    27    1
    31     2    28    1
    32     3    29    1
    33     4    30    1
    34     5    31    1
    35     6    32    1
    36     7    33    1
    37     8    34    1
    38     9    35    1
    39    10    36    1
    40    11    37    1
    41    12    38    1
    42    24    39    1
@<TRIPOS>SUBSTRUCTURE
     1 <0>         1 TEMP              0 ****  ****    0 ROOT

