
##########                                Name:        855_857_3HMM
##########                    Molecular_Weight:             313.362
##########                DOCK_Rotatable_Bonds:                   3
##########                       Formal_Charge:        -0.000299782
##########                     HBond_Acceptors:                   5
##########                        HBond_Donors:                   1
##########                         Heavy_Atoms:                  24
##########                            HA_RMSDs:               0.267
##########                            HA_RMSDh:               0.267
##########                            HA_RMSDm:               0.267
##########                          Grid_Score:          -59.057919
##########                     Grid_vdw_energy:          -57.246876
##########                      Grid_es_energy:           -1.811043
##########           Internal_energy_repulsive:            6.779670

@<TRIPOS>MOLECULE
855_857_3HMM
 39 42 1 0 0
SMALL
USER_CHARGES


@<TRIPOS>ATOM
      1 C1         10.3722   64.2245    5.4783 C.3     1  <0>        -0.0223
      2 C2         17.3670   68.3709    9.6276 C.ar    1  <0>        -0.0610
      3 C3         16.3670   67.5933   10.2537 C.ar    1  <0>        -0.0597
      4 C4         13.4810   63.4834    3.3996 C.ar    1  <0>        -0.0580
      5 C5         17.5201   68.3132    8.2198 C.ar    1  <0>        -0.0493
      6 C6         15.5152   66.7601    9.4711 C.ar    1  <0>        -0.0356
      7 C7         12.1305   63.4635    3.8349 C.ar    1  <0>        -0.0406
      8 C8         14.4453   64.2458    4.1073 C.ar    1  <0>        -0.0326
      9 C9         18.6466   69.2830    3.4148 C.ar    1  <0>        -0.0224
     10 C10        16.4180   68.3254    3.0717 C.ar    1  <0>        -0.0224
     11 C11        18.5638   69.8077    2.1162 C.ar    1  <0>         0.0293
     12 C12        16.4193   68.8873    1.7848 C.ar    1  <0>         0.0293
     13 C13        11.7813   64.2050    4.9792 C.ar    1  <0>         0.0390
     14 C14        17.5639   68.5268    3.9174 C.ar    1  <0>         0.0353
     15 C15        16.6657   67.4680    7.4193 C.ar    1  <0>         0.0405
     16 C16        15.6439   66.6841    8.0668 C.ar    1  <0>         0.0767
     17 C17        14.0235   64.9712    5.2531 C.ar    1  <0>         0.1082
     18 C18        16.7100   67.3145    6.0135 C.ar    1  <0>         0.1346
     19 C19        14.9335   65.8097    6.0386 C.ar    1  <0>         0.1807
     20 N1         17.4709   69.6257    1.2929 N.ar    1  <0>        -0.2631
     21 N2         12.7020   64.9441    5.6747 N.ar    1  <0>        -0.2488
     22 N3         14.7955   65.8719    7.3892 N.ar    1  <0>        -0.2258
     23 N4         15.8618   66.5013    5.3518 N.ar    1  <0>        -0.2103
     24 N5         17.6382   67.9979    5.2186 N.pl3   1  <0>        -0.2988
     25 H1         10.3074   64.8649    6.3703 H       1  <0>         0.0292
     26 H2          9.7109   64.6209    4.6936 H       1  <0>         0.0292
     27 H3         10.0612   63.2018    5.7380 H       1  <0>         0.0292
     28 H4         18.0108   69.0056   10.2184 H       1  <0>         0.0618
     29 H5         16.2479   67.6302   11.3265 H       1  <0>         0.0618
     30 H6         13.7751   62.9173    2.5282 H       1  <0>         0.0619
     31 H7         18.2841   68.9076    7.7406 H       1  <0>         0.0625
     32 H8         14.7539   66.1734    9.9637 H       1  <0>         0.0639
     33 H9         11.3868   62.8917    3.2998 H       1  <0>         0.0635
     34 H10        15.4750   64.2740    3.7828 H       1  <0>         0.0640
     35 H11        19.5241   69.4544    4.0207 H       1  <0>         0.0651
     36 H12        15.5717   67.7521    3.4202 H       1  <0>         0.0651
     37 H13        19.3974   70.3833    1.7416 H       1  <0>         0.0830
     38 H14        15.5568   68.7331    1.1534 H       1  <0>         0.0830
     39 H15        18.5242   68.1366    5.6611 H       1  <0>         0.1536
@<TRIPOS>BOND
     1     1    13    1
     2     2     3   ar
     3     2     5   ar
     4     3     6   ar
     5     4     7   ar
     6     4     8   ar
     7     5    15   ar
     8     6    16   ar
     9     7    13   ar
    10     8    17   ar
    11     9    11   ar
    12     9    14   ar
    13    10    12   ar
    14    10    14   ar
    15    11    20   ar
    16    12    20   ar
    17    13    21   ar
    18    14    24    1
    19    15    16   ar
    20    15    18   ar
    21    16    22   ar
    22    17    19    1
    23    17    21   ar
    24    18    23   ar
    25    18    24    1
    26    19    22   ar
    27    19    23   ar
    28     1    25    1
    29     1    26    1
    30     1    27    1
    31     2    28    1
    32     3    29    1
    33     4    30    1
    34     5    31    1
    35     6    32    1
    36     7    33    1
    37     8    34    1
    38     9    35    1
    39    10    36    1
    40    11    37    1
    41    12    38    1
    42    24    39    1
@<TRIPOS>SUBSTRUCTURE
     1 <0>         1 TEMP              0 ****  ****    0 ROOT

