
##########                                Name:        855_857_3HMM
##########                    Molecular_Weight:             313.362
##########                DOCK_Rotatable_Bonds:                   3
##########                       Formal_Charge:        -0.000299782
##########                     HBond_Acceptors:                   5
##########                        HBond_Donors:                   1
##########                         Heavy_Atoms:                  24
##########                            HA_RMSDs:               0.280
##########                            HA_RMSDh:               0.280
##########                            HA_RMSDm:               0.280
##########                          Grid_Score:          -58.003685
##########                     Grid_vdw_energy:          -56.094734
##########                      Grid_es_energy:           -1.908951
##########           Internal_energy_repulsive:            7.143039

@<TRIPOS>MOLECULE
855_857_3HMM
 39 42 1 0 0
SMALL
USER_CHARGES


@<TRIPOS>ATOM
      1 C1         10.4954   64.1186    5.4042 C.3     1  <0>        -0.0223
      2 C2         17.1067   68.6927    9.7262 C.ar    1  <0>        -0.0610
      3 C3         16.1471   67.8452   10.3242 C.ar    1  <0>        -0.0597
      4 C4         13.6830   63.6245    3.3720 C.ar    1  <0>        -0.0580
      5 C5         17.2934   68.6582    8.3217 C.ar    1  <0>        -0.0493
      6 C6         15.3689   66.9651    9.5166 C.ar    1  <0>        -0.0356
      7 C7         12.3300   63.5045    3.7830 C.ar    1  <0>        -0.0406
      8 C8         14.5795   64.4427    4.1060 C.ar    1  <0>        -0.0326
      9 C9         18.6594   69.3596    3.4221 C.ar    1  <0>        -0.0224
     10 C10        16.4020   68.4694    3.0852 C.ar    1  <0>        -0.0224
     11 C11        18.6687   69.7068    2.0627 C.ar    1  <0>         0.0293
     12 C12        16.4967   68.8511    1.7373 C.ar    1  <0>         0.0293
     13 C13        11.9106   64.2042    4.9299 C.ar    1  <0>         0.0390
     14 C14        17.5142   68.7299    3.9594 C.ar    1  <0>         0.0353
     15 C15        16.5138   67.7661    7.4961 C.ar    1  <0>         0.0405
     16 C16        15.5323   66.9107    8.1149 C.ar    1  <0>         0.0767
     17 C17        14.0887   65.1212    5.2530 C.ar    1  <0>         0.1082
     18 C18        16.5980   67.6289    6.0904 C.ar    1  <0>         0.1346
     19 C19        14.9245   66.0104    6.0649 C.ar    1  <0>         0.1807
     20 N1         17.6094   69.4661    1.2112 N.ar    1  <0>        -0.2631
     21 N2         12.7655   64.9963    5.6508 N.ar    1  <0>        -0.2488
     22 N3         14.7540   66.0509    7.4125 N.ar    1  <0>        -0.2258
     23 N4         15.8197   66.7679    5.4040 N.ar    1  <0>        -0.2103
     24 N5         17.4959   68.3792    5.3215 N.pl3   1  <0>        -0.2988
     25 H1         10.3710   64.7408    6.3028 H       1  <0>         0.0292
     26 H2          9.8213   64.4786    4.6129 H       1  <0>         0.0292
     27 H3         10.2524   63.0733    5.6457 H       1  <0>         0.0292
     28 H4         17.6946   69.3628   10.3360 H       1  <0>         0.0618
     29 H5         16.0029   67.8643   11.3944 H       1  <0>         0.0618
     30 H6         14.0306   63.0922    2.4990 H       1  <0>         0.0619
     31 H7         18.0265   69.3059    7.8641 H       1  <0>         0.0625
     32 H8         14.6376   66.3250    9.9877 H       1  <0>         0.0639
     33 H9         11.6373   62.8896    3.2278 H       1  <0>         0.0635
     34 H10        15.6100   64.5470    3.8002 H       1  <0>         0.0640
     35 H11        19.5140   69.5703    4.0480 H       1  <0>         0.0651
     36 H12        15.5101   67.9888    3.4590 H       1  <0>         0.0651
     37 H13        19.5494   70.1867    1.6622 H       1  <0>         0.0830
     38 H14        15.6592   68.6531    1.0847 H       1  <0>         0.0830
     39 H15        18.2737   68.7340    5.8404 H       1  <0>         0.1536
@<TRIPOS>BOND
     1     1    13    1
     2     2     3   ar
     3     2     5   ar
     4     3     6   ar
     5     4     7   ar
     6     4     8   ar
     7     5    15   ar
     8     6    16   ar
     9     7    13   ar
    10     8    17   ar
    11     9    11   ar
    12     9    14   ar
    13    10    12   ar
    14    10    14   ar
    15    11    20   ar
    16    12    20   ar
    17    13    21   ar
    18    14    24    1
    19    15    16   ar
    20    15    18   ar
    21    16    22   ar
    22    17    19    1
    23    17    21   ar
    24    18    23   ar
    25    18    24    1
    26    19    22   ar
    27    19    23   ar
    28     1    25    1
    29     1    26    1
    30     1    27    1
    31     2    28    1
    32     3    29    1
    33     4    30    1
    34     5    31    1
    35     6    32    1
    36     7    33    1
    37     8    34    1
    38     9    35    1
    39    10    36    1
    40    11    37    1
    41    12    38    1
    42    24    39    1
@<TRIPOS>SUBSTRUCTURE
     1 <0>         1 TEMP              0 ****  ****    0 ROOT

