
##########                                Name:        FMS_500_1BCD
##########                    Molecular_Weight:             149.094
##########                DOCK_Rotatable_Bonds:                   2
##########                       Formal_Charge:         0.000199914
##########                     HBond_Acceptors:                   7
##########                        HBond_Donors:                   2
##########                         Heavy_Atoms:                   8
##########                            HA_RMSDs:               0.195
##########                            HA_RMSDh:               0.195
##########                            HA_RMSDm:               0.195
##########                          Grid_Score:          -20.101479
##########                     Grid_vdw_energy:          -18.130047
##########                      Grid_es_energy:           -1.971433
##########           Internal_energy_repulsive:            0.000724

@<TRIPOS>MOLECULE
FMS_500_1BCD
 10 9 1 0 0
SMALL
USER_CHARGES


@<TRIPOS>ATOM
      1 C1         -6.5737    1.6968   17.3704 C.3     1  <0>         0.5379
      2 N1         -5.1059   -0.2570   16.0134 N.pl3   1  <0>        -0.2576
      3 O1         -3.9821    1.7316   16.8948 O.2     1  <0>        -0.1471
      4 O2         -5.5663    2.0454   15.0470 O.2     1  <0>        -0.1471
      5 F1         -7.6751    1.3311   16.8267 F       1  <0>        -0.1491
      6 F2         -6.6499    3.0613   17.3934 F       1  <0>        -0.1491
      7 F3         -6.3531    1.1700   18.5295 F       1  <0>        -0.1491
      8 S1         -5.2423    1.3321   16.2873 S.o2    1  <0>         0.1346
      9 H1         -4.2829   -0.4333   15.4734 H       1  <0>         0.1634
     10 H2         -5.0420   -0.7412   16.8861 H       1  <0>         0.1634
@<TRIPOS>BOND
     1     1     5    1
     2     1     6    1
     3     1     7    1
     4     1     8    1
     5     2     8    1
     6     3     8    2
     7     4     8    2
     8     2     9    1
     9     2    10    1
@<TRIPOS>SUBSTRUCTURE
     1 <0>         1 TEMP              0 ****  ****    0 ROOT

