
##########                                Name:        735_469_2P54
##########                    Molecular_Weight:             477.484
##########                DOCK_Rotatable_Bonds:                   9
##########                       Formal_Charge:             -1.0001
##########                     HBond_Acceptors:                  10
##########                        HBond_Donors:                   1
##########                         Heavy_Atoms:                  33
##########                            HA_RMSDs:              11.899
##########                            HA_RMSDh:              11.478
##########                            HA_RMSDm:               9.746
##########                          Grid_Score:           -4.563578
##########                     Grid_vdw_energy:          -31.343393
##########                      Grid_es_energy:           26.779816
##########           Internal_energy_repulsive:           13.087133

@<TRIPOS>MOLECULE
735_469_2P54
 53 55 1 0 0
SMALL
USER_CHARGES


@<TRIPOS>ATOM
      1 C1         21.2564   36.9030   27.0015 C.3     1  <0>        -0.0211
      2 C2         26.8757   44.5491   23.3976 C.3     1  <0>        -0.0303
      3 C3         26.3140   43.6993   25.7231 C.3     1  <0>        -0.0303
      4 C4         24.8816   39.3565   25.2061 C.ar    1  <0>        -0.0546
      5 C5         27.1505   39.3911   26.1116 C.ar    1  <0>        -0.0546
      6 C6         19.5717   39.4871   32.3779 C.ar    1  <0>        -0.0515
      7 C7         17.9532   39.0187   30.6200 C.ar    1  <0>        -0.0515
      8 C8         18.5348   39.8454   33.2424 C.ar    1  <0>        -0.0495
      9 C9         16.9142   39.3817   31.4955 C.ar    1  <0>        -0.0495
     10 C10        25.1774   40.4977   24.4362 C.ar    1  <0>        -0.0313
     11 C11        27.4439   40.5322   25.3399 C.ar    1  <0>        -0.0313
     12 C12        25.6388   37.5810   26.9125 C.3     1  <0>         0.0372
     13 C13        21.4388   37.5880   28.3381 C.2     1  <0>         0.0582
     14 C14        25.8764   38.7996   26.0552 C.ar    1  <0>        -0.0302
     15 C15        19.2913   39.0648   31.0613 C.ar    1  <0>         0.0072
     16 C16        17.1934   39.7920   32.8105 C.ar    1  <0>         0.0548
     17 C17        26.4500   41.0867   24.5040 C.ar    1  <0>         0.0774
     18 C18        22.5087   38.0973   28.9892 C.2     1  <0>         0.0967
     19 C19        20.3777   38.6724   30.1789 C.2     1  <0>         0.1092
     20 C20        23.9211   38.0239   28.5932 C.2     1  <0>         0.2528
     21 C21        28.5948   43.4259   24.6984 C.2     1  <0>         0.0734
     22 C22        27.0903   43.4237   24.4223 C.3     1  <0>         0.1093
     23 C23        16.0803   40.1601   33.7729 C.3     1  <0>         0.4174
     24 N1         20.2239   37.9828   29.0366 N.2     1  <0>        -0.2435
     25 N2         24.2968   37.4742   27.4245 N.am    1  <0>        -0.3068
     26 O1         29.0497   43.7855   25.7870 O.co2   1  <0>        -0.5469
     27 O2         24.6971   38.5040   29.4221 O.2     1  <0>        -0.2696
     28 O3         29.3567   43.0346   23.8147 O.co2   1  <0>        -0.5469
     29 O4         26.7162   42.2260   23.7381 O.3     1  <0>        -0.3330
     30 F1         15.0760   40.7001   33.1335 F       1  <0>        -0.1659
     31 F2         16.5374   40.9427   34.7195 F       1  <0>        -0.1659
     32 F3         15.6856   39.0376   34.3224 F       1  <0>        -0.1659
     33 S1         22.0967   38.9529   30.4386 S.3     1  <0>        -0.0623
     34 H1         20.1831   36.8170   26.7764 H       1  <0>         0.0293
     35 H2         21.7493   37.4949   26.2161 H       1  <0>         0.0293
     36 H3         21.7044   35.8992   27.0400 H       1  <0>         0.0293
     37 H4         27.4414   44.3243   22.4814 H       1  <0>         0.0261
     38 H5         25.8051   44.6269   23.1575 H       1  <0>         0.0261
     39 H6         27.2269   45.5018   23.8207 H       1  <0>         0.0261
     40 H7         26.4871   42.8786   26.4348 H       1  <0>         0.0261
     41 H8         26.6610   44.6456   26.1635 H       1  <0>         0.0261
     42 H9         25.2392   43.7707   25.5003 H       1  <0>         0.0261
     43 H10        23.9017   38.9057   25.1517 H       1  <0>         0.0622
     44 H11        27.9101   38.9673   26.7516 H       1  <0>         0.0622
     45 H12        20.5952   39.5336   32.7197 H       1  <0>         0.0624
     46 H13        17.7264   38.7053   29.6118 H       1  <0>         0.0624
     47 H14        18.7619   40.1657   34.2485 H       1  <0>         0.0623
     48 H15        15.8904   39.3448   31.1536 H       1  <0>         0.0623
     49 H16        24.4223   40.9217   23.7909 H       1  <0>         0.0643
     50 H17        28.4250   40.9811   25.3873 H       1  <0>         0.0643
     51 H18        25.8396   36.6904   26.2988 H       1  <0>         0.0512
     52 H19        26.3259   37.6307   27.7701 H       1  <0>         0.0512
     53 H20        23.6176   36.9714   26.8898 H       1  <0>         0.1494
@<TRIPOS>BOND
     1     1    13    1
     2     2    22    1
     3     3    22    1
     4     4    10   ar
     5     4    14   ar
     6     5    11   ar
     7     5    14   ar
     8     6     8   ar
     9     6    15   ar
    10     7     9   ar
    11     7    15   ar
    12     8    16   ar
    13     9    16   ar
    14    10    17   ar
    15    11    17   ar
    16    12    14    1
    17    12    25    1
    18    13    18    2
    19    13    24    1
    20    15    19    1
    21    16    23    1
    22    17    29    1
    23    18    20    1
    24    18    33    1
    25    19    24    2
    26    19    33    1
    27    20    25   am
    28    20    27    2
    29    21    22    1
    30    21    26    1
    31    21    28    2
    32    22    29    1
    33    23    30    1
    34    23    31    1
    35    23    32    1
    36     1    34    1
    37     1    35    1
    38     1    36    1
    39     2    37    1
    40     2    38    1
    41     2    39    1
    42     3    40    1
    43     3    41    1
    44     3    42    1
    45     4    43    1
    46     5    44    1
    47     6    45    1
    48     7    46    1
    49     8    47    1
    50     9    48    1
    51    10    49    1
    52    11    50    1
    53    12    51    1
    54    12    52    1
    55    25    53    1
@<TRIPOS>SUBSTRUCTURE
     1 <0>         1 TEMP              0 ****  ****    0 ROOT

