
##########                                Name:        735_469_2P54
##########                    Molecular_Weight:             477.484
##########                DOCK_Rotatable_Bonds:                   9
##########                       Formal_Charge:             -1.0001
##########                     HBond_Acceptors:                  10
##########                        HBond_Donors:                   1
##########                         Heavy_Atoms:                  33
##########                            HA_RMSDs:               0.648
##########                            HA_RMSDh:               0.648
##########                            HA_RMSDm:               0.648
##########                          Grid_Score:            3.131355
##########                     Grid_vdw_energy:          -55.312634
##########                      Grid_es_energy:           58.443989
##########           Internal_energy_repulsive:           11.528890

@<TRIPOS>MOLECULE
735_469_2P54
 53 55 1 0 0
SMALL
USER_CHARGES


@<TRIPOS>ATOM
      1 C1         11.6501   38.1341   30.6973 C.3     1  <0>        -0.0211
      2 C2          9.7041   42.8024   22.6325 C.3     1  <0>        -0.0303
      3 C3         11.6393   41.8145   23.9460 C.3     1  <0>        -0.0303
      4 C4         10.3861   38.6490   26.4739 C.ar    1  <0>        -0.0546
      5 C5         10.7892   37.2712   24.4969 C.ar    1  <0>        -0.0546
      6 C6         17.7509   38.6351   31.5181 C.ar    1  <0>        -0.0515
      7 C7         16.2113   40.0569   32.7580 C.ar    1  <0>        -0.0515
      8 C8         18.8053   39.0651   32.3269 C.ar    1  <0>        -0.0495
      9 C9         17.2778   40.4861   33.5680 C.ar    1  <0>        -0.0495
     10 C10         9.9481   39.6999   25.6454 C.ar    1  <0>        -0.0313
     11 C11        10.3499   38.3238   23.6706 C.ar    1  <0>        -0.0313
     12 C12        11.2995   36.2517   26.7112 C.3     1  <0>         0.0372
     13 C13        13.1149   38.0379   30.3312 C.2     1  <0>         0.0582
     14 C14        10.8145   37.4237   25.8942 C.ar    1  <0>        -0.0302
     15 C15        16.4435   39.1217   31.7290 C.ar    1  <0>         0.0072
     16 C16        18.5781   39.9929   33.3643 C.ar    1  <0>         0.0548
     17 C17         9.9330   39.5420   24.2504 C.ar    1  <0>         0.0774
     18 C18        13.7764   37.6537   29.2164 C.2     1  <0>         0.0967
     19 C19        15.3507   38.6488   30.8954 C.2     1  <0>         0.1092
     20 C20        13.2121   37.0746   27.9903 C.2     1  <0>         0.2528
     21 C21        11.0464   41.0431   21.6265 C.2     1  <0>         0.0734
     22 C22        10.4873   41.5228   22.9670 C.3     1  <0>         0.1093
     23 C23        19.7317   40.4272   34.2482 C.3     1  <0>         0.4174
     24 N1         14.0572   38.6490   31.2575 N.2     1  <0>        -0.2435
     25 N2         11.9467   36.6210   27.9438 N.am    1  <0>        -0.3068
     26 O1         12.2437   41.1536   21.3509 O.co2   1  <0>        -0.5469
     27 O2         13.9995   37.0502   27.0420 O.2     1  <0>        -0.2696
     28 O3         10.2788   40.5145   20.8229 O.co2   1  <0>        -0.5469
     29 O4          9.5040   40.6040   23.4483 O.3     1  <0>        -0.3330
     30 F1         19.6182   41.6892   34.5696 F       1  <0>        -0.1659
     31 F2         20.8755   40.1708   33.6623 F       1  <0>        -0.1659
     32 F3         19.6542   39.6988   35.3350 F       1  <0>        -0.1659
     33 S1         15.4851   37.9315   29.2927 S.3     1  <0>        -0.0623
     34 H1         11.5442   38.6766   31.6483 H       1  <0>         0.0293
     35 H2         11.1091   38.6733   29.9056 H       1  <0>         0.0293
     36 H3         11.2318   37.1224   30.8039 H       1  <0>         0.0293
     37 H4          8.8899   42.5623   21.9330 H       1  <0>         0.0261
     38 H5          9.2813   43.2252   23.5558 H       1  <0>         0.0261
     39 H6         10.3808   43.5357   22.1695 H       1  <0>         0.0261
     40 H7         12.1796   40.8819   24.1655 H       1  <0>         0.0261
     41 H8         12.3303   42.5405   23.4928 H       1  <0>         0.0261
     42 H9         11.2309   42.2299   24.8791 H       1  <0>         0.0261
     43 H10        10.3965   38.7735   27.5466 H       1  <0>         0.0622
     44 H11        11.1090   36.3398   24.0537 H       1  <0>         0.0622
     45 H12        17.9376   37.9254   30.7257 H       1  <0>         0.0624
     46 H13        15.2165   40.4431   32.9239 H       1  <0>         0.0624
     47 H14        19.8016   38.6844   32.1565 H       1  <0>         0.0623
     48 H15        17.0956   41.2025   34.3553 H       1  <0>         0.0623
     49 H16         9.6225   40.6311   26.0848 H       1  <0>         0.0643
     50 H17        10.3321   38.1997   22.5979 H       1  <0>         0.0643
     51 H18        10.4282   35.6278   26.9594 H       1  <0>         0.0512
     52 H19        12.0242   35.6909   26.1026 H       1  <0>         0.0512
     53 H20        11.4349   36.5368   28.7987 H       1  <0>         0.1494
@<TRIPOS>BOND
     1     1    13    1
     2     2    22    1
     3     3    22    1
     4     4    10   ar
     5     4    14   ar
     6     5    11   ar
     7     5    14   ar
     8     6     8   ar
     9     6    15   ar
    10     7     9   ar
    11     7    15   ar
    12     8    16   ar
    13     9    16   ar
    14    10    17   ar
    15    11    17   ar
    16    12    14    1
    17    12    25    1
    18    13    18    2
    19    13    24    1
    20    15    19    1
    21    16    23    1
    22    17    29    1
    23    18    20    1
    24    18    33    1
    25    19    24    2
    26    19    33    1
    27    20    25   am
    28    20    27    2
    29    21    22    1
    30    21    26    1
    31    21    28    2
    32    22    29    1
    33    23    30    1
    34    23    31    1
    35    23    32    1
    36     1    34    1
    37     1    35    1
    38     1    36    1
    39     2    37    1
    40     2    38    1
    41     2    39    1
    42     3    40    1
    43     3    41    1
    44     3    42    1
    45     4    43    1
    46     5    44    1
    47     6    45    1
    48     7    46    1
    49     8    47    1
    50     9    48    1
    51    10    49    1
    52    11    50    1
    53    12    51    1
    54    12    52    1
    55    25    53    1
@<TRIPOS>SUBSTRUCTURE
     1 <0>         1 TEMP              0 ****  ****    0 ROOT

