
##########                                Name:        735_469_2P54
##########                    Molecular_Weight:             477.484
##########                DOCK_Rotatable_Bonds:                   9
##########                       Formal_Charge:             -1.0001
##########                     HBond_Acceptors:                  10
##########                        HBond_Donors:                   1
##########                         Heavy_Atoms:                  33
##########                            HA_RMSDs:               0.468
##########                            HA_RMSDh:               0.468
##########                            HA_RMSDm:               0.468
##########                          Grid_Score:           -2.113689
##########                     Grid_vdw_energy:          -61.453449
##########                      Grid_es_energy:           59.339760
##########           Internal_energy_repulsive:           12.564252

@<TRIPOS>MOLECULE
735_469_2P54
 53 55 1 0 0
SMALL
USER_CHARGES


@<TRIPOS>ATOM
      1 C1         11.3125   38.3526   30.6647 C.3     1  <0>        -0.0211
      2 C2         10.0271   43.0677   21.9959 C.3     1  <0>        -0.0303
      3 C3         11.7007   42.4231   23.7928 C.3     1  <0>        -0.0303
      4 C4         10.4397   39.1643   26.2987 C.ar    1  <0>        -0.0546
      5 C5         10.4570   37.6608   24.3731 C.ar    1  <0>        -0.0546
      6 C6         17.4266   38.9501   31.4487 C.ar    1  <0>        -0.0515
      7 C7         15.8418   40.1105   32.8878 C.ar    1  <0>        -0.0515
      8 C8         18.4781   39.3546   32.2742 C.ar    1  <0>        -0.0495
      9 C9         16.9054   40.5147   33.7142 C.ar    1  <0>        -0.0495
     10 C10        10.1086   40.2381   25.4503 C.ar    1  <0>        -0.0313
     11 C11        10.1251   38.7366   23.5268 C.ar    1  <0>        -0.0313
     12 C12        10.9767   36.6619   26.5946 C.3     1  <0>         0.0372
     13 C13        12.7791   38.2742   30.3014 C.2     1  <0>         0.0582
     14 C14        10.6196   37.8633   25.7547 C.ar    1  <0>        -0.0302
     15 C15        16.0985   39.3186   31.7501 C.ar    1  <0>         0.0072
     16 C16        18.2272   40.1384   33.4194 C.ar    1  <0>         0.0548
     17 C17         9.9554   40.0287   24.0705 C.ar    1  <0>         0.0774
     18 C18        13.4463   37.9317   29.1765 C.2     1  <0>         0.0967
     19 C19        15.0105   38.8720   30.8958 C.2     1  <0>         0.1092
     20 C20        12.8888   37.3944   27.9284 C.2     1  <0>         0.2528
     21 C21        11.4604   41.1360   21.6452 C.2     1  <0>         0.0734
     22 C22        10.7103   41.9053   22.7339 C.3     1  <0>         0.1093
     23 C23        19.3799   40.5451   34.3174 C.3     1  <0>         0.4174
     24 N1         13.7157   38.8552   31.2525 N.2     1  <0>        -0.2435
     25 N2         11.6096   36.9866   27.8470 N.am    1  <0>        -0.3068
     26 O1         12.6838   40.9849   21.6894 O.co2   1  <0>        -0.5469
     27 O2         13.6952   37.3589   26.9966 O.2     1  <0>        -0.2696
     28 O3         10.8145   40.6404   20.7224 O.co2   1  <0>        -0.5469
     29 O4          9.6371   41.1132   23.2471 O.3     1  <0>        -0.3330
     30 F1         19.1042   41.6561   34.9490 F       1  <0>        -0.1659
     31 F2         20.4873   40.6372   33.6227 F       1  <0>        -0.1659
     32 F3         19.5218   39.5786   35.1911 F       1  <0>        -0.1659
     33 S1         15.1537   38.2122   29.2694 S.3     1  <0>        -0.0623
     34 H1         11.2010   38.8609   31.6339 H       1  <0>         0.0293
     35 H2         10.7728   38.9176   29.8904 H       1  <0>         0.0293
     36 H3         10.8972   37.3364   30.7339 H       1  <0>         0.0293
     37 H4          9.3273   42.6671   21.2478 H       1  <0>         0.0261
     38 H5          9.4759   43.6873   22.7186 H       1  <0>         0.0261
     39 H6         10.7894   43.6811   21.4931 H       1  <0>         0.0261
     40 H7         12.1724   41.5700   24.3026 H       1  <0>         0.0261
     41 H8         12.4754   43.0316   23.3035 H       1  <0>         0.0261
     42 H9         11.1620   43.0378   24.5290 H       1  <0>         0.0261
     43 H10        10.5568   39.3286   27.3597 H       1  <0>         0.0622
     44 H11        10.5878   36.6727   23.9573 H       1  <0>         0.0622
     45 H12        17.6315   38.3513   30.5736 H       1  <0>         0.0624
     46 H13        14.8303   40.4060   33.1244 H       1  <0>         0.0624
     47 H14        19.4905   39.0650   32.0339 H       1  <0>         0.0623
     48 H15        16.7044   41.1212   34.5850 H       1  <0>         0.0623
     49 H16         9.9718   41.2269   25.8626 H       1  <0>         0.0643
     50 H17        10.0009   38.5739   22.4664 H       1  <0>         0.0643
     51 H18        10.0484   36.1147   26.8156 H       1  <0>         0.0512
     52 H19        11.6727   36.0378   26.0148 H       1  <0>         0.0512
     53 H20        11.0769   36.9055   28.6894 H       1  <0>         0.1494
@<TRIPOS>BOND
     1     1    13    1
     2     2    22    1
     3     3    22    1
     4     4    10   ar
     5     4    14   ar
     6     5    11   ar
     7     5    14   ar
     8     6     8   ar
     9     6    15   ar
    10     7     9   ar
    11     7    15   ar
    12     8    16   ar
    13     9    16   ar
    14    10    17   ar
    15    11    17   ar
    16    12    14    1
    17    12    25    1
    18    13    18    2
    19    13    24    1
    20    15    19    1
    21    16    23    1
    22    17    29    1
    23    18    20    1
    24    18    33    1
    25    19    24    2
    26    19    33    1
    27    20    25   am
    28    20    27    2
    29    21    22    1
    30    21    26    1
    31    21    28    2
    32    22    29    1
    33    23    30    1
    34    23    31    1
    35    23    32    1
    36     1    34    1
    37     1    35    1
    38     1    36    1
    39     2    37    1
    40     2    38    1
    41     2    39    1
    42     3    40    1
    43     3    41    1
    44     3    42    1
    45     4    43    1
    46     5    44    1
    47     6    45    1
    48     7    46    1
    49     8    47    1
    50     9    48    1
    51    10    49    1
    52    11    50    1
    53    12    51    1
    54    12    52    1
    55    25    53    1
@<TRIPOS>SUBSTRUCTURE
     1 <0>         1 TEMP              0 ****  ****    0 ROOT

