
##########                                Name:        735_469_2P54
##########                    Molecular_Weight:             477.484
##########                DOCK_Rotatable_Bonds:                   9
##########                       Formal_Charge:             -1.0001
##########                     HBond_Acceptors:                  10
##########                        HBond_Donors:                   1
##########                         Heavy_Atoms:                  33
##########                            HA_RMSDs:               0.576
##########                            HA_RMSDh:               0.576
##########                            HA_RMSDm:               0.576
##########                          Grid_Score:           -0.071297
##########                     Grid_vdw_energy:          -59.453224
##########                      Grid_es_energy:           59.381927
##########           Internal_energy_repulsive:           11.654040

@<TRIPOS>MOLECULE
735_469_2P54
 53 55 1 0 0
SMALL
USER_CHARGES


@<TRIPOS>ATOM
      1 C1         11.2753   38.0257   30.4257 C.3     1  <0>        -0.0211
      2 C2         10.2859   43.2362   21.9966 C.3     1  <0>        -0.0303
      3 C3         11.8256   42.4613   23.8606 C.3     1  <0>        -0.0303
      4 C4         10.2210   39.0150   26.0204 C.ar    1  <0>        -0.0546
      5 C5         10.8961   37.7347   24.0522 C.ar    1  <0>        -0.0546
      6 C6         17.3455   38.8753   31.2878 C.ar    1  <0>        -0.0515
      7 C7         15.7023   39.9106   32.7565 C.ar    1  <0>        -0.0515
      8 C8         18.3723   39.2852   32.1414 C.ar    1  <0>        -0.0495
      9 C9         16.7411   40.3208   33.6111 C.ar    1  <0>        -0.0495
     10 C10         9.9400   40.1221   25.1971 C.ar    1  <0>        -0.0313
     11 C11        10.6135   38.8433   23.2309 C.ar    1  <0>        -0.0313
     12 C12        11.0340   36.5816   26.2555 C.3     1  <0>         0.0372
     13 C13        12.7445   38.0470   30.0654 C.2     1  <0>         0.0582
     14 C14        10.7075   37.8104   25.4432 C.ar    1  <0>        -0.0302
     15 C15        16.0011   39.1784   31.5895 C.ar    1  <0>         0.0072
     16 C16        18.0795   40.0093   33.3156 C.ar    1  <0>         0.0548
     17 C17        10.1382   40.0405   23.8096 C.ar    1  <0>         0.0774
     18 C18        13.4309   37.8080   28.9254 C.2     1  <0>         0.0967
     19 C19        14.9399   38.7262   30.7050 C.2     1  <0>         0.1092
     20 C20        12.9049   37.3170   27.6450 C.2     1  <0>         0.2528
     21 C21        11.8108   41.3883   21.5857 C.2     1  <0>         0.0734
     22 C22        10.9458   42.0250   22.6748 C.3     1  <0>         0.1093
     23 C23        19.2065   40.4224   34.2428 C.3     1  <0>         0.4174
     24 N1         13.6472   38.6194   31.0538 N.2     1  <0>        -0.2435
     25 N2         11.6439   36.8632   27.5296 N.am    1  <0>        -0.3068
     26 O1         13.0236   41.2244   21.7396 O.co2   1  <0>        -0.5469
     27 O2         13.7190   37.3641   26.7204 O.2     1  <0>        -0.2696
     28 O3         11.2685   41.0131   20.5466 O.co2   1  <0>        -0.5469
     29 O4          9.8622   41.1570   23.0141 O.3     1  <0>        -0.3330
     30 F1         18.8358   41.4162   35.0070 F       1  <0>        -0.1659
     31 F2         20.2824   40.7094   33.5517 F       1  <0>        -0.1659
     32 F3         19.4654   39.3785   34.9918 F       1  <0>        -0.1659
     33 S1         15.1208   38.1727   29.0430 S.3     1  <0>        -0.0623
     34 H1         11.1352   38.4688   31.4227 H       1  <0>         0.0293
     35 H2         10.7074   38.6063   29.6836 H       1  <0>         0.0293
     36 H3         10.9146   36.9866   30.4325 H       1  <0>         0.0293
     37 H4          9.6654   42.8933   21.1556 H       1  <0>         0.0261
     38 H5          9.6548   43.7657   22.7256 H       1  <0>         0.0261
     39 H6         11.0653   43.9169   21.6234 H       1  <0>         0.0261
     40 H7         12.2829   41.5748   24.3241 H       1  <0>         0.0261
     41 H8         12.6164   43.1362   23.5013 H       1  <0>         0.0261
     42 H9         11.2060   42.9849   24.6035 H       1  <0>         0.0261
     43 H10        10.0674   39.0809   27.0875 H       1  <0>         0.0622
     44 H11        11.2606   36.8193   23.6100 H       1  <0>         0.0622
     45 H12        17.5824   38.3226   30.3907 H       1  <0>         0.0624
     46 H13        14.6777   40.1560   32.9939 H       1  <0>         0.0624
     47 H14        19.3976   39.0460   31.9006 H       1  <0>         0.0623
     48 H15        16.5079   40.8814   34.5043 H       1  <0>         0.0623
     49 H16         9.5704   41.0377   25.6346 H       1  <0>         0.0643
     50 H17        10.7598   38.7781   22.1628 H       1  <0>         0.0643
     51 H18        10.0955   36.0389   26.4414 H       1  <0>         0.0512
     52 H19        11.7353   35.9664   25.6725 H       1  <0>         0.0512
     53 H20        11.1087   36.7156   28.3612 H       1  <0>         0.1494
@<TRIPOS>BOND
     1     1    13    1
     2     2    22    1
     3     3    22    1
     4     4    10   ar
     5     4    14   ar
     6     5    11   ar
     7     5    14   ar
     8     6     8   ar
     9     6    15   ar
    10     7     9   ar
    11     7    15   ar
    12     8    16   ar
    13     9    16   ar
    14    10    17   ar
    15    11    17   ar
    16    12    14    1
    17    12    25    1
    18    13    18    2
    19    13    24    1
    20    15    19    1
    21    16    23    1
    22    17    29    1
    23    18    20    1
    24    18    33    1
    25    19    24    2
    26    19    33    1
    27    20    25   am
    28    20    27    2
    29    21    22    1
    30    21    26    1
    31    21    28    2
    32    22    29    1
    33    23    30    1
    34    23    31    1
    35    23    32    1
    36     1    34    1
    37     1    35    1
    38     1    36    1
    39     2    37    1
    40     2    38    1
    41     2    39    1
    42     3    40    1
    43     3    41    1
    44     3    42    1
    45     4    43    1
    46     5    44    1
    47     6    45    1
    48     7    46    1
    49     8    47    1
    50     9    48    1
    51    10    49    1
    52    11    50    1
    53    12    51    1
    54    12    52    1
    55    25    53    1
@<TRIPOS>SUBSTRUCTURE
     1 <0>         1 TEMP              0 ****  ****    0 ROOT

