
##########                                Name:        735_469_2P54
##########                    Molecular_Weight:             477.484
##########                DOCK_Rotatable_Bonds:                   9
##########                       Formal_Charge:             -1.0001
##########                     HBond_Acceptors:                  10
##########                        HBond_Donors:                   1
##########                         Heavy_Atoms:                  33
##########                            HA_RMSDs:               0.517
##########                            HA_RMSDh:               0.517
##########                            HA_RMSDm:               0.517
##########                          Grid_Score:           -5.203842
##########                     Grid_vdw_energy:          -64.738251
##########                      Grid_es_energy:           59.534409
##########           Internal_energy_repulsive:           12.202167

@<TRIPOS>MOLECULE
735_469_2P54
 53 55 1 0 0
SMALL
USER_CHARGES


@<TRIPOS>ATOM
      1 C1         11.4939   38.5342   30.5663 C.3     1  <0>        -0.0211
      2 C2         10.1926   43.1792   21.9198 C.3     1  <0>        -0.0303
      3 C3         11.9115   42.5158   23.6665 C.3     1  <0>        -0.0303
      4 C4         10.3925   39.1888   26.2107 C.ar    1  <0>        -0.0546
      5 C5         11.0411   37.8557   24.2687 C.ar    1  <0>        -0.0546
      6 C6         17.5688   39.1013   31.5911 C.ar    1  <0>        -0.0515
      7 C7         15.9490   40.3847   32.8788 C.ar    1  <0>        -0.0515
      8 C8         18.5894   39.5253   32.4452 C.ar    1  <0>        -0.0495
      9 C9         16.9816   40.8083   33.7342 C.ar    1  <0>        -0.0495
     10 C10        10.0423   40.2522   25.3569 C.ar    1  <0>        -0.0313
     11 C11        10.6894   38.9208   23.4169 C.ar    1  <0>        -0.0313
     12 C12        11.3001   36.7959   26.5076 C.3     1  <0>         0.0372
     13 C13        12.9726   38.4446   30.2594 C.2     1  <0>         0.0582
     14 C14        10.9005   37.9798   25.6620 C.ar    1  <0>        -0.0302
     15 C15        16.2387   39.5214   31.8026 C.ar    1  <0>         0.0072
     16 C16        18.3048   40.3808   33.5295 C.ar    1  <0>         0.0548
     17 C17        10.1929   40.1228   23.9670 C.ar    1  <0>         0.0774
     18 C18        13.6801   38.0726   29.1690 C.2     1  <0>         0.0967
     19 C19        15.1820   39.0545   30.9204 C.2     1  <0>         0.1092
     20 C20        13.1678   37.5043   27.9153 C.2     1  <0>         0.2528
     21 C21        11.6355   41.2685   21.4998 C.2     1  <0>         0.0734
     22 C22        10.9026   42.0093   22.6196 C.3     1  <0>         0.1093
     23 C23        19.4229   40.8088   34.4608 C.3     1  <0>         0.4174
     24 N1         13.8749   39.0486   31.2294 N.2     1  <0>        -0.2435
     25 N2         11.8776   37.1489   27.7790 N.am    1  <0>        -0.3068
     26 O1         12.8380   41.0056   21.5804 O.co2   1  <0>        -0.5469
     27 O2         14.0215   37.3920   27.0331 O.2     1  <0>        -0.2696
     28 O3         10.9947   40.9105   20.5121 O.co2   1  <0>        -0.5469
     29 O4          9.8484   41.1969   23.1406 O.3     1  <0>        -0.3330
     30 F1         19.2879   42.0645   34.7988 F       1  <0>        -0.1659
     31 F2         20.5888   40.5709   33.9117 F       1  <0>        -0.1659
     32 F3         19.3129   40.0618   35.5321 F       1  <0>        -0.1659
     33 S1         15.3836   38.3531   29.3177 S.3     1  <0>        -0.0623
     34 H1         11.3479   39.0672   31.5174 H       1  <0>         0.0293
     35 H2         10.9843   39.0799   29.7584 H       1  <0>         0.0293
     36 H3         11.0740   37.5207   30.6460 H       1  <0>         0.0293
     37 H4          9.4801   42.7864   21.1795 H       1  <0>         0.0261
     38 H5          9.6519   43.7792   22.6664 H       1  <0>         0.0261
     39 H6         10.9379   43.8095   21.4126 H       1  <0>         0.0261
     40 H7         12.4021   41.6577   24.1490 H       1  <0>         0.0261
     41 H8         12.6695   43.1413   23.1724 H       1  <0>         0.0261
     42 H9         11.3835   43.1109   24.4263 H       1  <0>         0.0261
     43 H10        10.2755   39.2913   27.2795 H       1  <0>         0.0622
     44 H11        11.4218   36.9367   23.8483 H       1  <0>         0.0622
     45 H12        17.7995   38.4473   30.7631 H       1  <0>         0.0624
     46 H13        14.9361   40.7200   33.0459 H       1  <0>         0.0624
     47 H14        19.6036   39.1958   32.2739 H       1  <0>         0.0623
     48 H15        16.7554   41.4695   34.5577 H       1  <0>         0.0623
     49 H16         9.6564   41.1711   25.7728 H       1  <0>         0.0643
     50 H17        10.7991   38.8186   22.3474 H       1  <0>         0.0643
     51 H18        10.3979   36.1966   26.6997 H       1  <0>         0.0512
     52 H19        12.0463   36.2146   25.9460 H       1  <0>         0.0512
     53 H20        11.2965   37.1290   28.5925 H       1  <0>         0.1494
@<TRIPOS>BOND
     1     1    13    1
     2     2    22    1
     3     3    22    1
     4     4    10   ar
     5     4    14   ar
     6     5    11   ar
     7     5    14   ar
     8     6     8   ar
     9     6    15   ar
    10     7     9   ar
    11     7    15   ar
    12     8    16   ar
    13     9    16   ar
    14    10    17   ar
    15    11    17   ar
    16    12    14    1
    17    12    25    1
    18    13    18    2
    19    13    24    1
    20    15    19    1
    21    16    23    1
    22    17    29    1
    23    18    20    1
    24    18    33    1
    25    19    24    2
    26    19    33    1
    27    20    25   am
    28    20    27    2
    29    21    22    1
    30    21    26    1
    31    21    28    2
    32    22    29    1
    33    23    30    1
    34    23    31    1
    35    23    32    1
    36     1    34    1
    37     1    35    1
    38     1    36    1
    39     2    37    1
    40     2    38    1
    41     2    39    1
    42     3    40    1
    43     3    41    1
    44     3    42    1
    45     4    43    1
    46     5    44    1
    47     6    45    1
    48     7    46    1
    49     8    47    1
    50     9    48    1
    51    10    49    1
    52    11    50    1
    53    12    51    1
    54    12    52    1
    55    25    53    1
@<TRIPOS>SUBSTRUCTURE
     1 <0>         1 TEMP              0 ****  ****    0 ROOT

