
##########                                Name:        735_469_2P54
##########                    Molecular_Weight:             477.484
##########                DOCK_Rotatable_Bonds:                   9
##########                       Formal_Charge:             -1.0001
##########                     HBond_Acceptors:                  10
##########                        HBond_Donors:                   1
##########                         Heavy_Atoms:                  33
##########                            HA_RMSDs:              11.834
##########                            HA_RMSDh:              11.387
##########                            HA_RMSDm:               9.925
##########                          Grid_Score:           -2.081385
##########                     Grid_vdw_energy:          -29.270350
##########                      Grid_es_energy:           27.188965
##########           Internal_energy_repulsive:           12.965629

@<TRIPOS>MOLECULE
735_469_2P54
 53 55 1 0 0
SMALL
USER_CHARGES


@<TRIPOS>ATOM
      1 C1         21.5877   36.8726   26.5661 C.3     1  <0>        -0.0211
      2 C2         26.1738   43.9201   22.0683 C.3     1  <0>        -0.0303
      3 C3         26.0037   43.3521   24.5369 C.3     1  <0>        -0.0303
      4 C4         25.0650   38.9102   24.6485 C.ar    1  <0>        -0.0546
      5 C5         27.2547   39.4184   25.6056 C.ar    1  <0>        -0.0546
      6 C6         19.5859   39.8021   31.6677 C.ar    1  <0>        -0.0515
      7 C7         18.0850   38.5880   30.1837 C.ar    1  <0>        -0.0515
      8 C8         18.5118   40.1161   32.5035 C.ar    1  <0>        -0.0495
      9 C9         17.0080   38.9085   31.0293 C.ar    1  <0>        -0.0495
     10 C10        25.2520   39.9284   23.6941 C.ar    1  <0>        -0.0313
     11 C11        27.4394   40.4358   24.6494 C.ar    1  <0>        -0.0313
     12 C12        25.9502   37.5847   26.6727 C.3     1  <0>         0.0372
     13 C13        21.6911   37.6224   27.8760 C.2     1  <0>         0.0582
     14 C14        26.0744   38.6548   25.6164 C.ar    1  <0>        -0.0302
     15 C15        19.3846   39.0307   30.5038 C.ar    1  <0>         0.0072
     16 C16        17.2108   39.6679   32.1944 C.ar    1  <0>         0.0548
     17 C17        26.4305   40.6913   23.6950 C.ar    1  <0>         0.0774
     18 C18        22.7055   38.2406   28.5216 C.2     1  <0>         0.0967
     19 C19        20.5145   38.6912   29.6546 C.2     1  <0>         0.1092
     20 C20        24.1263   38.2641   28.1502 C.2     1  <0>         0.2528
     21 C21        28.2011   43.4255   23.3152 C.2     1  <0>         0.0734
     22 C22        26.7223   43.0487   23.2095 C.3     1  <0>         0.1093
     23 C23        16.0623   39.9973   33.1287 C.3     1  <0>         0.4174
     24 N1         20.4364   37.9467   28.5394 N.2     1  <0>        -0.2435
     25 N2         24.6218   37.4395   27.2101 N.am    1  <0>        -0.3068
     26 O1         28.6951   43.8044   24.3801 O.co2   1  <0>        -0.5469
     27 O2         24.7913   39.0934   28.7745 O.2     1  <0>        -0.2696
     28 O3         28.9089   43.3209   22.3140 O.co2   1  <0>        -0.5469
     29 O4         26.5882   41.7042   22.7438 O.3     1  <0>        -0.3330
     30 F1         14.9278   40.0128   32.4793 F       1  <0>        -0.1659
     31 F2         16.2893   41.1302   33.7472 F       1  <0>        -0.1659
     32 F3         16.0319   39.0397   34.0230 F       1  <0>        -0.1659
     33 S1         22.2010   39.1176   29.9284 S.3     1  <0>        -0.0623
     34 H1         20.5288   36.6926   26.3286 H       1  <0>         0.0293
     35 H2         22.0466   37.4701   25.7645 H       1  <0>         0.0293
     36 H3         22.1127   35.9099   26.6524 H       1  <0>         0.0293
     37 H4         26.7056   43.6810   21.1356 H       1  <0>         0.0261
     38 H5         25.0997   43.7213   21.9391 H       1  <0>         0.0261
     39 H6         26.3234   44.9820   22.3136 H       1  <0>         0.0261
     40 H7         26.4171   42.7146   25.3323 H       1  <0>         0.0261
     41 H8         26.1520   44.4097   24.8006 H       1  <0>         0.0261
     42 H9         24.9283   43.1490   24.4261 H       1  <0>         0.0261
     43 H10        24.1573   38.3249   24.6453 H       1  <0>         0.0622
     44 H11        28.0257   39.2234   26.3362 H       1  <0>         0.0622
     45 H12        20.5774   40.1523   31.9142 H       1  <0>         0.0624
     46 H13        17.9169   38.0039   29.2910 H       1  <0>         0.0624
     47 H14        18.6786   40.7062   33.3925 H       1  <0>         0.0623
     48 H15        16.0140   38.5672   30.7806 H       1  <0>         0.0623
     49 H16        24.4857   40.1232   22.9585 H       1  <0>         0.0643
     50 H17        28.3490   41.0182   24.6461 H       1  <0>         0.0643
     51 H18        26.2390   36.6252   26.2187 H       1  <0>         0.0512
     52 H19        26.6245   37.8465   27.5014 H       1  <0>         0.0512
     53 H20        24.0452   36.6964   26.8709 H       1  <0>         0.1494
@<TRIPOS>BOND
     1     1    13    1
     2     2    22    1
     3     3    22    1
     4     4    10   ar
     5     4    14   ar
     6     5    11   ar
     7     5    14   ar
     8     6     8   ar
     9     6    15   ar
    10     7     9   ar
    11     7    15   ar
    12     8    16   ar
    13     9    16   ar
    14    10    17   ar
    15    11    17   ar
    16    12    14    1
    17    12    25    1
    18    13    18    2
    19    13    24    1
    20    15    19    1
    21    16    23    1
    22    17    29    1
    23    18    20    1
    24    18    33    1
    25    19    24    2
    26    19    33    1
    27    20    25   am
    28    20    27    2
    29    21    22    1
    30    21    26    1
    31    21    28    2
    32    22    29    1
    33    23    30    1
    34    23    31    1
    35    23    32    1
    36     1    34    1
    37     1    35    1
    38     1    36    1
    39     2    37    1
    40     2    38    1
    41     2    39    1
    42     3    40    1
    43     3    41    1
    44     3    42    1
    45     4    43    1
    46     5    44    1
    47     6    45    1
    48     7    46    1
    49     8    47    1
    50     9    48    1
    51    10    49    1
    52    11    50    1
    53    12    51    1
    54    12    52    1
    55    25    53    1
@<TRIPOS>SUBSTRUCTURE
     1 <0>         1 TEMP              0 ****  ****    0 ROOT

