
##########                                Name:        735_469_2P54
##########                    Molecular_Weight:             477.484
##########                DOCK_Rotatable_Bonds:                   9
##########                       Formal_Charge:             -1.0001
##########                     HBond_Acceptors:                  10
##########                        HBond_Donors:                   1
##########                         Heavy_Atoms:                  33
##########                            HA_RMSDs:               0.415
##########                            HA_RMSDh:               0.415
##########                            HA_RMSDm:               0.415
##########                          Grid_Score:            1.304340
##########                     Grid_vdw_energy:          -58.023052
##########                      Grid_es_energy:           59.327393
##########           Internal_energy_repulsive:           11.791864

@<TRIPOS>MOLECULE
735_469_2P54
 53 55 1 0 0
SMALL
USER_CHARGES


@<TRIPOS>ATOM
      1 C1         11.5081   38.4086   30.7530 C.3     1  <0>        -0.0211
      2 C2         10.2687   43.1245   22.2032 C.3     1  <0>        -0.0303
      3 C3         12.1306   42.1303   23.6140 C.3     1  <0>        -0.0303
      4 C4         10.4471   39.1091   26.4296 C.ar    1  <0>        -0.0546
      5 C5         10.9211   37.7349   24.4659 C.ar    1  <0>        -0.0546
      6 C6         17.6018   38.9292   31.6827 C.ar    1  <0>        -0.0515
      7 C7         16.0119   40.2007   33.0187 C.ar    1  <0>        -0.0515
      8 C8         18.6391   39.3323   32.5268 C.ar    1  <0>        -0.0495
      9 C9         17.0612   40.6032   33.8639 C.ar    1  <0>        -0.0495
     10 C10        10.1084   40.1856   25.5877 C.ar    1  <0>        -0.0313
     11 C11        10.5811   38.8132   23.6261 C.ar    1  <0>        -0.0313
     12 C12        11.2425   36.6730   26.6957 C.3     1  <0>         0.0372
     13 C13        12.9808   38.3201   30.4178 C.2     1  <0>         0.0582
     14 C14        10.8612   37.8725   25.8637 C.ar    1  <0>        -0.0302
     15 C15        16.2781   39.3540   31.9234 C.ar    1  <0>         0.0072
     16 C16        18.3780   40.1710   33.6300 C.ar    1  <0>         0.0548
     17 C17        10.1781   40.0422   24.1928 C.ar    1  <0>         0.0774
     18 C18        13.6671   37.9680   29.3075 C.2     1  <0>         0.0967
     19 C19        15.2040   38.9088   31.0511 C.2     1  <0>         0.1092
     20 C20        13.1302   37.4271   28.0519 C.2     1  <0>         0.2528
     21 C21        11.3471   41.0729   21.4705 C.2     1  <0>         0.0734
     22 C22        10.9094   41.8289   22.7262 C.3     1  <0>         0.1093
     23 C23        19.5141   40.5760   34.5497 C.3     1  <0>         0.4174
     24 N1         13.9026   38.9011   31.3834 N.2     1  <0>        -0.2435
     25 N2         11.8576   37.0023   27.9558 N.am    1  <0>        -0.3068
     26 O1         12.5357   40.8325   21.2444 O.co2   1  <0>        -0.5469
     27 O2         13.9468   37.4053   27.1287 O.2     1  <0>        -0.2696
     28 O3         10.4826   40.6794   20.6881 O.co2   1  <0>        -0.5469
     29 O4          9.8471   41.1292   23.3778 O.3     1  <0>        -0.3330
     30 F1         19.2295   41.6891   35.1736 F       1  <0>        -0.1659
     31 F2         20.6353   40.6633   33.8769 F       1  <0>        -0.1659
     32 F3         19.6357   39.6108   35.4280 F       1  <0>        -0.1659
     33 S1         15.3740   38.2395   29.4311 S.3     1  <0>        -0.0623
     34 H1         11.3813   38.9226   31.7172 H       1  <0>         0.0293
     35 H2         10.9862   38.9724   29.9657 H       1  <0>         0.0293
     36 H3         11.0859   37.3951   30.8197 H       1  <0>         0.0293
     37 H4          9.4012   42.8770   21.5739 H       1  <0>         0.0261
     38 H5          9.9407   43.7403   23.0536 H       1  <0>         0.0261
     39 H6         11.0057   43.6836   21.6081 H       1  <0>         0.0261
     40 H7         12.5663   41.1858   23.9721 H       1  <0>         0.0261
     41 H8         12.8816   42.6819   23.0294 H       1  <0>         0.0261
     42 H9         11.8165   42.7387   24.4750 H       1  <0>         0.0261
     43 H10        10.3924   39.2225   27.5022 H       1  <0>         0.0622
     44 H11        11.2302   36.7952   24.0328 H       1  <0>         0.0622
     45 H12        17.8145   38.2880   30.8401 H       1  <0>         0.0624
     46 H13        15.0041   40.5394   33.2083 H       1  <0>         0.0624
     47 H14        19.6481   38.9994   32.3331 H       1  <0>         0.0623
     48 H15        16.8529   41.2517   34.7021 H       1  <0>         0.0623
     49 H16         9.7937   41.1255   26.0166 H       1  <0>         0.0643
     50 H17        10.6284   38.7005   22.5530 H       1  <0>         0.0643
     51 H18        10.3267   36.1006   26.9047 H       1  <0>         0.0512
     52 H19        11.9583   36.0719   26.1158 H       1  <0>         0.0512
     53 H20        11.3171   36.9115   28.7922 H       1  <0>         0.1494
@<TRIPOS>BOND
     1     1    13    1
     2     2    22    1
     3     3    22    1
     4     4    10   ar
     5     4    14   ar
     6     5    11   ar
     7     5    14   ar
     8     6     8   ar
     9     6    15   ar
    10     7     9   ar
    11     7    15   ar
    12     8    16   ar
    13     9    16   ar
    14    10    17   ar
    15    11    17   ar
    16    12    14    1
    17    12    25    1
    18    13    18    2
    19    13    24    1
    20    15    19    1
    21    16    23    1
    22    17    29    1
    23    18    20    1
    24    18    33    1
    25    19    24    2
    26    19    33    1
    27    20    25   am
    28    20    27    2
    29    21    22    1
    30    21    26    1
    31    21    28    2
    32    22    29    1
    33    23    30    1
    34    23    31    1
    35    23    32    1
    36     1    34    1
    37     1    35    1
    38     1    36    1
    39     2    37    1
    40     2    38    1
    41     2    39    1
    42     3    40    1
    43     3    41    1
    44     3    42    1
    45     4    43    1
    46     5    44    1
    47     6    45    1
    48     7    46    1
    49     8    47    1
    50     9    48    1
    51    10    49    1
    52    11    50    1
    53    12    51    1
    54    12    52    1
    55    25    53    1
@<TRIPOS>SUBSTRUCTURE
     1 <0>         1 TEMP              0 ****  ****    0 ROOT

