
##########                                Name:        735_469_2P54
##########                    Molecular_Weight:             477.484
##########                DOCK_Rotatable_Bonds:                   9
##########                       Formal_Charge:             -1.0001
##########                     HBond_Acceptors:                  10
##########                        HBond_Donors:                   1
##########                         Heavy_Atoms:                  33
##########                            HA_RMSDs:               0.526
##########                            HA_RMSDh:               0.526
##########                            HA_RMSDm:               0.526
##########                          Grid_Score:           -4.233135
##########                     Grid_vdw_energy:          -63.482311
##########                      Grid_es_energy:           59.249176
##########           Internal_energy_repulsive:           11.876607

@<TRIPOS>MOLECULE
735_469_2P54
 53 55 1 0 0
SMALL
USER_CHARGES


@<TRIPOS>ATOM
      1 C1         11.5116   38.4912   30.6435 C.3     1  <0>        -0.0211
      2 C2         10.4656   43.3012   21.9868 C.3     1  <0>        -0.0303
      3 C3         12.0470   42.5698   23.8334 C.3     1  <0>        -0.0303
      4 C4         10.4464   39.3102   26.2363 C.ar    1  <0>        -0.0546
      5 C5         10.8929   37.8824   24.3047 C.ar    1  <0>        -0.0546
      6 C6         17.6287   38.6830   31.5337 C.ar    1  <0>        -0.0515
      7 C7         16.1266   40.0961   32.8284 C.ar    1  <0>        -0.0515
      8 C8         18.6926   39.0492   32.3613 C.ar    1  <0>        -0.0495
      9 C9         17.2025   40.4611   33.6572 C.ar    1  <0>        -0.0495
     10 C10        10.1746   40.3869   25.3706 C.ar    1  <0>        -0.0313
     11 C11        10.6197   38.9609   23.4411 C.ar    1  <0>        -0.0313
     12 C12        11.1217   36.8447   26.5572 C.3     1  <0>         0.0372
     13 C13        12.9746   38.3114   30.3027 C.2     1  <0>         0.0582
     14 C14        10.8129   38.0463   25.6986 C.ar    1  <0>        -0.0302
     15 C15        16.3351   39.1976   31.7623 C.ar    1  <0>         0.0072
     16 C16        18.4889   39.9398   33.4356 C.ar    1  <0>         0.0548
     17 C17        10.2640   40.2167   23.9799 C.ar    1  <0>         0.0774
     18 C18        13.6325   37.8923   29.1984 C.2     1  <0>         0.0967
     19 C19        15.2317   38.7907   30.9080 C.2     1  <0>         0.1092
     20 C20        13.0575   37.3498   27.9606 C.2     1  <0>         0.2528
     21 C21        11.8966   41.3692   21.6282 C.2     1  <0>         0.0734
     22 C22        11.1029   42.1039   22.7099 C.3     1  <0>         0.1093
     23 C23        19.6517   40.3044   34.3386 C.3     1  <0>         0.4174
     24 N1         13.9342   38.8648   31.2475 N.2     1  <0>        -0.2435
     25 N2         11.7322   37.1660   27.8216 N.am    1  <0>        -0.3068
     26 O1         13.0953   41.1148   21.7692 O.co2   1  <0>        -0.5469
     27 O2         13.8947   37.0895   27.0939 O.2     1  <0>        -0.2696
     28 O3         11.3089   41.0074   20.6093 O.co2   1  <0>        -0.5469
     29 O4          9.9998   41.3040   23.1411 O.3     1  <0>        -0.3330
     30 F1         19.5204   41.5235   34.7921 F       1  <0>        -0.1659
     31 F2         20.7881   40.1349   33.7081 F       1  <0>        -0.1659
     32 F3         19.6107   39.4655   35.3447 F       1  <0>        -0.1659
     33 S1         15.3527   38.0707   29.3055 S.3     1  <0>        -0.0623
     34 H1         11.4204   39.0365   31.5944 H       1  <0>         0.0293
     35 H2         11.0167   39.0626   29.8443 H       1  <0>         0.0293
     36 H3         11.0338   37.5051   30.7393 H       1  <0>         0.0293
     37 H4          9.7982   42.9372   21.1919 H       1  <0>         0.0261
     38 H5          9.8865   43.8982   22.7067 H       1  <0>         0.0261
     39 H6         11.2561   43.9253   21.5445 H       1  <0>         0.0261
     40 H7         12.4866   41.6927   24.3308 H       1  <0>         0.0261
     41 H8         12.8493   43.1884   23.4049 H       1  <0>         0.0261
     42 H9         11.4797   43.1613   24.5670 H       1  <0>         0.0261
     43 H10        10.3767   39.4442   27.3057 H       1  <0>         0.0622
     44 H11        11.1659   36.9221   23.8929 H       1  <0>         0.0622
     45 H12        17.7975   38.0013   30.7132 H       1  <0>         0.0624
     46 H13        15.1427   40.5033   33.0083 H       1  <0>         0.0624
     47 H14        19.6781   38.6476   32.1772 H       1  <0>         0.0623
     48 H15        17.0385   41.1496   34.4730 H       1  <0>         0.0623
     49 H16         9.8961   41.3475   25.7781 H       1  <0>         0.0643
     50 H17        10.6821   38.8279   22.3711 H       1  <0>         0.0643
     51 H18        10.1758   36.3214   26.7607 H       1  <0>         0.0512
     52 H19        11.8163   36.1991   25.9997 H       1  <0>         0.0512
     53 H20        11.1477   37.2560   28.6279 H       1  <0>         0.1494
@<TRIPOS>BOND
     1     1    13    1
     2     2    22    1
     3     3    22    1
     4     4    10   ar
     5     4    14   ar
     6     5    11   ar
     7     5    14   ar
     8     6     8   ar
     9     6    15   ar
    10     7     9   ar
    11     7    15   ar
    12     8    16   ar
    13     9    16   ar
    14    10    17   ar
    15    11    17   ar
    16    12    14    1
    17    12    25    1
    18    13    18    2
    19    13    24    1
    20    15    19    1
    21    16    23    1
    22    17    29    1
    23    18    20    1
    24    18    33    1
    25    19    24    2
    26    19    33    1
    27    20    25   am
    28    20    27    2
    29    21    22    1
    30    21    26    1
    31    21    28    2
    32    22    29    1
    33    23    30    1
    34    23    31    1
    35    23    32    1
    36     1    34    1
    37     1    35    1
    38     1    36    1
    39     2    37    1
    40     2    38    1
    41     2    39    1
    42     3    40    1
    43     3    41    1
    44     3    42    1
    45     4    43    1
    46     5    44    1
    47     6    45    1
    48     7    46    1
    49     8    47    1
    50     9    48    1
    51    10    49    1
    52    11    50    1
    53    12    51    1
    54    12    52    1
    55    25    53    1
@<TRIPOS>SUBSTRUCTURE
     1 <0>         1 TEMP              0 ****  ****    0 ROOT

