
##########                                Name:        735_469_2P54
##########                    Molecular_Weight:             477.484
##########                DOCK_Rotatable_Bonds:                   9
##########                       Formal_Charge:             -1.0001
##########                     HBond_Acceptors:                  10
##########                        HBond_Donors:                   1
##########                         Heavy_Atoms:                  33
##########                            HA_RMSDs:               0.676
##########                            HA_RMSDh:               0.676
##########                            HA_RMSDm:               0.640
##########                          Grid_Score:           -4.958427
##########                     Grid_vdw_energy:          -64.197021
##########                      Grid_es_energy:           59.238594
##########           Internal_energy_repulsive:           13.842708

@<TRIPOS>MOLECULE
735_469_2P54
 53 55 1 0 0
SMALL
USER_CHARGES


@<TRIPOS>ATOM
      1 C1         11.3919   38.9001   30.1825 C.3     1  <0>        -0.0211
      2 C2         10.2511   42.9663   22.0136 C.3     1  <0>        -0.0303
      3 C3         11.6768   42.1315   23.9414 C.3     1  <0>        -0.0303
      4 C4         10.1232   38.8960   25.8812 C.ar    1  <0>        -0.0546
      5 C5         11.0644   37.4484   24.1528 C.ar    1  <0>        -0.0546
      6 C6         17.5338   38.8784   31.1250 C.ar    1  <0>        -0.0515
      7 C7         15.9686   39.8234   32.7332 C.ar    1  <0>        -0.0515
      8 C8         18.6018   39.2205   31.9577 C.ar    1  <0>        -0.0495
      9 C9         17.0486   40.1657   33.5662 C.ar    1  <0>        -0.0495
     10 C10         9.9162   39.9021   24.9181 C.ar    1  <0>        -0.0313
     11 C11        10.8557   38.4561   23.1913 C.ar    1  <0>        -0.0313
     12 C12        10.9630   36.5317   26.4663 C.3     1  <0>         0.0372
     13 C13        12.8352   38.5050   29.9597 C.2     1  <0>         0.0582
     14 C14        10.7065   37.6582   25.4959 C.ar    1  <0>        -0.0302
     15 C15        16.2074   39.1708   31.5067 C.ar    1  <0>         0.0072
     16 C16        18.3691   39.8646   33.1905 C.ar    1  <0>         0.0548
     17 C17        10.2834   39.6871   23.5801 C.ar    1  <0>         0.0774
     18 C18        13.4867   37.8694   28.9600 C.2     1  <0>         0.0967
     19 C19        15.1033   38.7888   30.6418 C.2     1  <0>         0.1092
     20 C20        12.9073   37.2408   27.7657 C.2     1  <0>         0.2528
     21 C21        12.1085   41.4669   21.5542 C.2     1  <0>         0.0734
     22 C22        11.0275   41.7726   22.5924 C.3     1  <0>         0.1093
     23 C23        19.5405   40.2041   34.0923 C.3     1  <0>         0.4174
     24 N1         13.8109   39.0601   30.8869 N.2     1  <0>        -0.2435
     25 N2         11.5975   36.9437   27.6919 N.am    1  <0>        -0.3068
     26 O1         13.2888   41.3145   21.8786 O.co2   1  <0>        -0.5469
     27 O2         13.7259   37.0223   26.8702 O.2     1  <0>        -0.2696
     28 O3         11.7767   41.3487   20.3751 O.co2   1  <0>        -0.5469
     29 O4         10.0779   40.7057   22.6442 O.3     1  <0>        -0.3330
     30 F1         19.4125   41.4092   34.5825 F       1  <0>        -0.1659
     31 F2         20.6707   40.0545   33.4459 F       1  <0>        -0.1659
     32 F3         19.5103   39.3360   35.0737 F       1  <0>        -0.1659
     33 S1         15.2087   37.8551   29.1524 S.3     1  <0>        -0.0623
     34 H1         11.3250   39.5727   31.0503 H       1  <0>         0.0293
     35 H2         11.0110   39.4161   29.2887 H       1  <0>         0.0293
     36 H3         10.7899   37.9988   30.3701 H       1  <0>         0.0293
     37 H4          9.7998   42.6796   21.0524 H       1  <0>         0.0261
     38 H5          9.4588   43.2636   22.7163 H       1  <0>         0.0261
     39 H6         10.9393   43.8103   21.8582 H       1  <0>         0.0261
     40 H7         12.2237   41.2595   24.3292 H       1  <0>         0.0261
     41 H8         12.3755   42.9693   23.8004 H       1  <0>         0.0261
     42 H9         10.8951   42.4226   24.6585 H       1  <0>         0.0261
     43 H10         9.8396   39.0643   26.9096 H       1  <0>         0.0622
     44 H11        11.5029   36.5071   23.8558 H       1  <0>         0.0622
     45 H12        17.7248   38.3868   30.1825 H       1  <0>         0.0624
     46 H13        14.9583   40.0601   33.0324 H       1  <0>         0.0624
     47 H14        19.6127   38.9903   31.6553 H       1  <0>         0.0623
     48 H15        16.8613   40.6654   34.5052 H       1  <0>         0.0623
     49 H16         9.4732   40.8428   25.2097 H       1  <0>         0.0643
     50 H17        11.1322   38.2881   22.1609 H       1  <0>         0.0643
     51 H18         9.9944   36.0773   26.7219 H       1  <0>         0.0512
     52 H19        11.6216   35.8021   25.9722 H       1  <0>         0.0512
     53 H20        11.0422   37.0115   28.5208 H       1  <0>         0.1494
@<TRIPOS>BOND
     1     1    13    1
     2     2    22    1
     3     3    22    1
     4     4    10   ar
     5     4    14   ar
     6     5    11   ar
     7     5    14   ar
     8     6     8   ar
     9     6    15   ar
    10     7     9   ar
    11     7    15   ar
    12     8    16   ar
    13     9    16   ar
    14    10    17   ar
    15    11    17   ar
    16    12    14    1
    17    12    25    1
    18    13    18    2
    19    13    24    1
    20    15    19    1
    21    16    23    1
    22    17    29    1
    23    18    20    1
    24    18    33    1
    25    19    24    2
    26    19    33    1
    27    20    25   am
    28    20    27    2
    29    21    22    1
    30    21    26    1
    31    21    28    2
    32    22    29    1
    33    23    30    1
    34    23    31    1
    35    23    32    1
    36     1    34    1
    37     1    35    1
    38     1    36    1
    39     2    37    1
    40     2    38    1
    41     2    39    1
    42     3    40    1
    43     3    41    1
    44     3    42    1
    45     4    43    1
    46     5    44    1
    47     6    45    1
    48     7    46    1
    49     8    47    1
    50     9    48    1
    51    10    49    1
    52    11    50    1
    53    12    51    1
    54    12    52    1
    55    25    53    1
@<TRIPOS>SUBSTRUCTURE
     1 <0>         1 TEMP              0 ****  ****    0 ROOT

