
##########                                Name:        ZK1_263_3KGC
##########                    Molecular_Weight:             407.243
##########                DOCK_Rotatable_Bonds:                   4
##########                       Formal_Charge:             -1.9999
##########                     HBond_Acceptors:                  12
##########                        HBond_Donors:                   1
##########                         Heavy_Atoms:                  27
##########                            HA_RMSDs:               0.627
##########                            HA_RMSDh:               0.627
##########                            HA_RMSDm:               0.627
##########                          Grid_Score:           84.337082
##########                     Grid_vdw_energy:          -42.886990
##########                      Grid_es_energy:          127.224068
##########           Internal_energy_repulsive:           14.214037

@<TRIPOS>MOLECULE
ZK1_263_3KGC
 40 42 1 0 0
SMALL
USER_CHARGES


@<TRIPOS>ATOM
      1 C1          7.0135   34.9346   -0.9975 C.ar    1  <0>        -0.0252
      2 C2          7.0736   32.1755   -0.6694 C.ar    1  <0>        -0.0168
      3 C3          7.2197   31.9185    2.4824 C.3     1  <0>         0.0357
      4 C4          4.8042   31.8025    1.5912 C.3     1  <0>         0.0357
      5 C5          6.6391   31.6073    3.8678 C.3     1  <0>         0.0634
      6 C6          4.4238   31.3617    3.0124 C.3     1  <0>         0.0634
      7 C7          8.0477   30.4233   -2.7419 C.3     1  <0>         0.0479
      8 C8          6.5678   34.3752    0.2094 C.ar    1  <0>         0.0776
      9 C9          7.4843   34.1166   -2.0270 C.ar    1  <0>         0.0561
     10 C10         7.5063   32.7359   -1.8737 C.ar    1  <0>         0.0601
     11 C11         6.6050   32.9806    0.3603 C.ar    1  <0>         0.0434
     12 C12         8.4011   33.8846   -4.2579 C.2     1  <0>         0.3037
     13 C13         8.4332   32.4915   -4.1137 C.2     1  <0>         0.3064
     14 C14         6.1013   35.3040    1.3369 C.3     1  <0>         0.4192
     15 N1          7.9368   34.6813   -3.2258 N.am    1  <0>        -0.2761
     16 N2          7.9865   31.9040   -2.9174 N.am    1  <0>        -0.2569
     17 N3          6.1901   32.3022    1.5095 N.pl3   1  <0>        -0.3250
     18 O1          9.4003   29.4344   -0.4464 O.3     1  <0>        -0.8117
     19 O2         10.1007   28.6026   -2.7783 O.3     1  <0>        -0.8117
     20 O3          8.7744   34.4129   -5.3044 O.2     1  <0>        -0.2648
     21 O4          8.8241   31.7753   -5.0386 O.2     1  <0>        -0.2646
     22 O5         10.6462   31.0005   -2.0139 O.2     1  <0>        -0.3519
     23 O6          5.5337   30.7032    3.6567 O.3     1  <0>        -0.3767
     24 F1          6.8720   35.0727    2.4067 F       1  <0>        -0.1658
     25 F2          6.2759   36.5560    0.9361 F       1  <0>        -0.1658
     26 F3          4.8499   35.0970    1.6676 F       1  <0>        -0.1658
     27 P1          9.6758   29.9030   -1.9753 P.3     1  <0>        -0.0482
     28 H1          6.9925   36.0061   -1.1315 H       1  <0>         0.0643
     29 H2          7.1039   31.1040   -0.5378 H       1  <0>         0.0655
     30 H3          7.9303   32.7521    2.5829 H       1  <0>         0.0486
     31 H4          7.7312   31.0186    2.1100 H       1  <0>         0.0486
     32 H5          4.7048   30.9375    0.9190 H       1  <0>         0.0486
     33 H6          4.1234   32.6092    1.2819 H       1  <0>         0.0486
     34 H7          7.4015   31.1395    4.5080 H       1  <0>         0.0575
     35 H8          6.2930   32.5303    4.3558 H       1  <0>         0.0575
     36 H9          4.1416   32.2478    3.5999 H       1  <0>         0.0575
     37 H10         3.5752   30.6639    2.9570 H       1  <0>         0.0575
     38 H11         7.2256   30.1075   -2.0828 H       1  <0>         0.0525
     39 H12         7.9467   29.9426   -3.7261 H       1  <0>         0.0525
     40 H13         7.9242   35.6750   -3.3379 H       1  <0>         0.1553
@<TRIPOS>BOND
     1     1     8   ar
     2     1     9   ar
     3     2    10   ar
     4     2    11   ar
     5     3     5    1
     6     3    17    1
     7     4     6    1
     8     4    17    1
     9     5    23    1
    10     6    23    1
    11     7    16    1
    12     7    27    1
    13     8    11   ar
    14     8    14    1
    15     9    10   ar
    16     9    15    1
    17    10    16    1
    18    11    17    1
    19    12    13    1
    20    12    15   am
    21    12    20    2
    22    13    16   am
    23    13    21    2
    24    14    24    1
    25    14    25    1
    26    14    26    1
    27    18    27    1
    28    19    27    1
    29    22    27    2
    30     1    28    1
    31     2    29    1
    32     3    30    1
    33     3    31    1
    34     4    32    1
    35     4    33    1
    36     5    34    1
    37     5    35    1
    38     6    36    1
    39     6    37    1
    40     7    38    1
    41     7    39    1
    42    15    40    1
@<TRIPOS>SUBSTRUCTURE
     1 <0>         1 TEMP              0 ****  ****    0 ROOT

