Z4135312238
 OpenBabel06112419382D

 24 25  0  0  0  0  0  0  0  0999 V2000
    6.8479  -13.0000    0.0000 C   0  0  0  0  0  0  0  0  0  0  0  0
    6.8479  -11.5000    0.0000 C   0  0  3  0  0  0  0  0  0  0  0  0
    8.1470  -10.7500    0.0000 N   0  0  0  0  0  0  0  0  0  0  0  0
    8.1470   -9.2500    0.0000 C   0  0  0  0  0  0  0  0  0  0  0  0
    9.4459  -11.5000    0.0000 C   0  0  0  0  0  0  0  0  0  0  0  0
   10.7450  -10.7500    0.0000 C   0  0  3  0  0  0  0  0  0  0  0  0
   10.7450   -9.2500    0.0000 O   0  0  0  0  0  0  0  0  0  0  0  0
   12.0441  -11.5000    0.0000 C   0  0  0  0  0  0  0  0  0  0  0  0
   13.3432  -10.7500    0.0000 O   0  0  0  0  0  0  0  0  0  0  0  0
   14.6423  -11.5000    0.0000 C   0  0  0  0  0  0  0  0  0  0  0  0
   15.9412  -10.7500    0.0000 C   0  0  0  0  0  0  0  0  0  0  0  0
   17.2403  -11.5000    0.0000 C   0  0  0  0  0  0  0  0  0  0  0  0
   17.2403  -13.0000    0.0000 C   0  0  0  0  0  0  0  0  0  0  0  0
   15.9412  -13.7500    0.0000 C   0  0  0  0  0  0  0  0  0  0  0  0
   14.6423  -13.0000    0.0000 C   0  0  0  0  0  0  0  0  0  0  0  0
   13.3432  -13.7500    0.0000 C   0  0  0  0  0  0  0  0  0  0  0  0
   18.5394  -10.7500    0.0000 C   0  0  0  0  0  0  0  0  0  0  0  0
   19.8383  -10.0000    0.0000 N   0  0  0  0  0  0  0  0  0  0  0  0
    5.5489  -10.7500    0.0000 C   0  0  0  0  0  0  0  0  0  0  0  0
    4.2500  -11.5000    0.0000 C   0  0  0  0  0  0  0  0  0  0  0  0
    2.9509  -10.7500    0.0000 C   0  0  0  0  0  0  0  0  0  0  0  0
    2.9509   -9.2500    0.0000 C   0  0  0  0  0  0  0  0  0  0  0  0
    4.2500   -8.5000    0.0000 C   0  0  0  0  0  0  0  0  0  0  0  0
    5.5489   -9.2500    0.0000 C   0  0  0  0  0  0  0  0  0  0  0  0
  1  2  1  0  0  0  0
  2  3  1  0  0  0  0
  2 19  1  0  0  0  0
  3  4  1  0  0  0  0
  3  5  1  0  0  0  0
  5  6  1  0  0  0  0
  6  7  1  0  0  0  0
  6  8  1  0  0  0  0
  8  9  1  0  0  0  0
  9 10  1  0  0  0  0
 10 11  2  0  0  0  0
 10 15  1  0  0  0  0
 11 12  1  0  0  0  0
 12 13  2  0  0  0  0
 12 17  1  0  0  0  0
 13 14  1  0  0  0  0
 14 15  2  0  0  0  0
 15 16  1  0  0  0  0
 17 18  3  0  0  0  0
 19 20  2  0  0  0  0
 19 24  1  0  0  0  0
 20 21  1  0  0  0  0
 21 22  2  0  0  0  0
 22 23  1  0  0  0  0
 23 24  2  0  0  0  0
M  END
$$$$
