Z4135312264
 OpenBabel06112419412D

 21 23  0  0  0  0  0  0  0  0999 V2000
   16.5161   -8.7797    0.0000 O   0  0  0  0  0  0  0  0  0  0  0  0
   15.2169   -9.5298    0.0000 C   0  0  0  0  0  0  0  0  0  0  0  0
   15.2169  -11.0296    0.0000 C   0  0  0  0  0  0  0  0  0  0  0  0
   13.9180  -11.7796    0.0000 N   0  0  0  0  0  0  0  0  0  0  0  0
   12.6189  -11.0296    0.0000 C   0  0  0  0  0  0  0  0  0  0  0  0
   11.3199  -11.7796    0.0000 C   0  0  0  0  0  0  0  0  0  0  0  0
   11.3199  -13.2797    0.0000 N   0  0  0  0  0  0  0  0  0  0  0  0
   10.0210  -14.0297    0.0000 C   0  0  0  0  0  0  0  0  0  0  0  0
    8.7219  -13.2797    0.0000 C   0  0  0  0  0  0  0  0  0  0  0  0
    7.4229  -14.0297    0.0000 C   0  0  0  0  0  0  0  0  0  0  0  0
    6.1238  -13.2797    0.0000 C   0  0  0  0  0  0  0  0  0  0  0  0
    6.1238  -11.7796    0.0000 C   0  0  0  0  0  0  0  0  0  0  0  0
    7.4229  -11.0296    0.0000 C   0  0  0  0  0  0  0  0  0  0  0  0
    7.4229   -9.5298    0.0000 Br  0  0  0  0  0  0  0  0  0  0  0  0
    8.7219  -11.7796    0.0000 C   0  0  0  0  0  0  0  0  0  0  0  0
   10.0210  -11.0296    0.0000 Cl  0  0  0  0  0  0  0  0  0  0  0  0
   12.6189  -14.0297    0.0000 C   0  0  3  0  0  0  0  0  0  0  0  0
   13.9180  -13.2797    0.0000 C   0  0  0  0  0  0  0  0  0  0  0  0
   12.6189  -15.5297    0.0000 C   0  0  0  0  0  0  0  0  0  0  0  0
   13.3689  -16.8289    0.0000 C   0  0  0  0  0  0  0  0  0  0  0  0
   11.8690  -16.8289    0.0000 C   0  0  0  0  0  0  0  0  0  0  0  0
  1  2  1  0  0  0  0
  2  3  1  0  0  0  0
  3  4  1  0  0  0  0
  4  5  1  0  0  0  0
  4 18  1  0  0  0  0
  5  6  1  0  0  0  0
  6  7  1  0  0  0  0
  7  8  1  0  0  0  0
  7 17  1  0  0  0  0
  8  9  1  0  0  0  0
  9 10  2  0  0  0  0
  9 15  1  0  0  0  0
 10 11  1  0  0  0  0
 11 12  2  0  0  0  0
 12 13  1  0  0  0  0
 13 14  1  0  0  0  0
 13 15  2  0  0  0  0
 15 16  1  0  0  0  0
 17 18  1  0  0  0  0
 17 19  1  0  0  0  0
 19 20  1  0  0  0  0
 19 21  1  0  0  0  0
 20 21  1  0  0  0  0
M  END
$$$$
