Z4135312239
 OpenBabel06112419392D

 26 28  0  0  1  0  0  0  0  0999 V2000
   19.1141  -13.8673    0.0000 C   0  0  0  0  0  0  0  0  0  0  0  0
   19.1141  -12.3673    0.0000 N   0  0  0  0  0  0  0  0  0  0  0  0
   17.8150  -11.6173    0.0000 C   0  0  0  0  0  0  0  0  0  0  0  0
   16.5159  -12.3673    0.0000 C   0  0  1  0  0  0  0  0  0  0  0  0
   16.5159  -13.8673    0.0000 O   0  0  0  0  0  0  0  0  0  0  0  0
   15.2168  -11.6173    0.0000 C   0  0  0  0  0  0  0  0  0  0  0  0
   13.9179  -12.3673    0.0000 O   0  0  0  0  0  0  0  0  0  0  0  0
   12.6188  -11.6173    0.0000 C   0  0  0  0  0  0  0  0  0  0  0  0
   11.3198  -12.3673    0.0000 C   0  0  0  0  0  0  0  0  0  0  0  0
   10.0209  -11.6173    0.0000 C   0  0  0  0  0  0  0  0  0  0  0  0
   10.0209  -10.1172    0.0000 C   0  0  0  0  0  0  0  0  0  0  0  0
   11.3198   -9.3672    0.0000 C   0  0  0  0  0  0  0  0  0  0  0  0
   12.6188  -10.1172    0.0000 C   0  0  0  0  0  0  0  0  0  0  0  0
   13.9179   -9.3672    0.0000 C   0  0  0  0  0  0  0  0  0  0  0  0
    8.7218  -12.3673    0.0000 C   0  0  0  0  0  0  0  0  0  0  0  0
    7.4229  -13.1173    0.0000 N   0  0  0  0  0  0  0  0  0  0  0  0
   20.4133  -11.6173    0.0000 C   0  0  0  0  0  0  0  0  0  0  0  0
   21.7122  -12.3673    0.0000 C   0  0  0  0  0  0  0  0  0  0  0  0
   23.0113  -11.6173    0.0000 C   0  0  0  0  0  0  0  0  0  0  0  0
   24.3104  -12.3673    0.0000 C   0  0  0  0  0  0  0  0  0  0  0  0
   24.3104  -13.8673    0.0000 C   0  0  0  0  0  0  0  0  0  0  0  0
   25.4250  -14.8709    0.0000 O   0  0  0  0  0  0  0  0  0  0  0  0
   24.8150  -16.2411    0.0000 C   0  0  0  0  0  0  0  0  0  0  0  0
   23.3231  -16.0844    0.0000 O   0  0  0  0  0  0  0  0  0  0  0  0
   23.0113  -14.6173    0.0000 C   0  0  0  0  0  0  0  0  0  0  0  0
   21.7122  -13.8673    0.0000 C   0  0  0  0  0  0  0  0  0  0  0  0
  1  2  1  0  0  0  0
  2  3  1  0  0  0  0
  2 17  1  0  0  0  0
  4  3  1  0  0  0  0
  4  5  1  1  0  0  0
  4  6  1  0  0  0  0
  6  7  1  0  0  0  0
  7  8  1  0  0  0  0
  8  9  2  0  0  0  0
  8 13  1  0  0  0  0
  9 10  1  0  0  0  0
 10 11  2  0  0  0  0
 10 15  1  0  0  0  0
 11 12  1  0  0  0  0
 12 13  2  0  0  0  0
 13 14  1  0  0  0  0
 15 16  3  0  0  0  0
 17 18  1  0  0  0  0
 18 19  2  0  0  0  0
 18 26  1  0  0  0  0
 19 20  1  0  0  0  0
 20 21  2  0  0  0  0
 21 22  1  0  0  0  0
 21 25  1  0  0  0  0
 22 23  1  0  0  0  0
 23 24  1  0  0  0  0
 24 25  1  0  0  0  0
 25 26  2  0  0  0  0
M  END
$$$$
