Z4145515674
 OpenBabel06112419392D

 21 23  0  0  0  0  0  0  0  0999 V2000
   22.2095   -8.2802    0.0000 F   0  0  0  0  0  0  0  0  0  0  0  0
   23.5084   -7.5302    0.0000 C   0  0  0  0  0  0  0  0  0  0  0  0
   23.5084   -6.0301    0.0000 C   0  0  0  0  0  0  0  0  0  0  0  0
   24.8076   -5.2801    0.0000 C   0  0  0  0  0  0  0  0  0  0  0  0
   24.8076   -3.7800    0.0000 Cl  0  0  0  0  0  0  0  0  0  0  0  0
   26.1065   -6.0301    0.0000 C   0  0  0  0  0  0  0  0  0  0  0  0
   26.1065   -7.5302    0.0000 C   0  0  0  0  0  0  0  0  0  0  0  0
   24.8076   -8.2802    0.0000 C   0  0  0  0  0  0  0  0  0  0  0  0
   24.8076   -9.7802    0.0000 N   0  0  0  0  0  0  0  0  0  0  0  0
   26.0211  -10.6619    0.0000 C   0  0  0  0  0  0  0  0  0  0  0  0
   25.5576  -12.0885    0.0000 C   0  0  0  0  0  0  0  0  0  0  0  0
   24.0575  -12.0885    0.0000 C   0  0  3  0  0  0  0  0  0  0  0  0
   23.5941  -10.6619    0.0000 C   0  0  0  0  0  0  0  0  0  0  0  0
   23.1759  -13.3020    0.0000 N   0  0  0  0  0  0  0  0  0  0  0  0
   23.7859  -14.6724    0.0000 C   0  0  0  0  0  0  0  0  0  0  0  0
   22.9042  -15.8859    0.0000 C   0  0  0  0  0  0  0  0  0  0  0  0
   23.5142  -17.2563    0.0000 C   0  0  0  0  0  0  0  0  0  0  0  0
   22.6326  -18.4700    0.0000 C   0  0  0  0  0  0  0  0  0  0  0  0
   21.1411  -18.3131    0.0000 C   0  0  0  0  0  0  0  0  0  0  0  0
   20.5309  -16.9428    0.0000 C   0  0  0  0  0  0  0  0  0  0  0  0
   21.4125  -15.7291    0.0000 C   0  0  0  0  0  0  0  0  0  0  0  0
  1  2  1  0  0  0  0
  2  3  2  0  0  0  0
  2  8  1  0  0  0  0
  3  4  1  0  0  0  0
  4  5  1  0  0  0  0
  4  6  2  0  0  0  0
  6  7  1  0  0  0  0
  7  8  2  0  0  0  0
  8  9  1  0  0  0  0
  9 10  1  0  0  0  0
  9 13  1  0  0  0  0
 10 11  1  0  0  0  0
 11 12  1  0  0  0  0
 12 13  1  0  0  0  0
 12 14  1  0  0  0  0
 14 15  1  0  0  0  0
 15 16  1  0  0  0  0
 16 17  2  0  0  0  0
 16 21  1  0  0  0  0
 17 18  1  0  0  0  0
 18 19  2  0  0  0  0
 19 20  1  0  0  0  0
 20 21  2  0  0  0  0
M  END
$$$$
