Z4167665784
 OpenBabel06112419402D

 24 27  0  0  1  0  0  0  0  0999 V2000
   24.8137  -19.1235    0.0000 C   0  0  0  0  0  0  0  0  0  0  0  0
   23.9321  -17.9100    0.0000 C   0  0  0  0  0  0  0  0  0  0  0  0
   22.4320  -17.9100    0.0000 C   0  0  0  0  0  0  0  0  0  0  0  0
   21.9684  -16.4834    0.0000 N   0  0  0  0  0  0  0  0  0  0  0  0
   23.1821  -15.6018    0.0000 N   0  0  0  0  0  0  0  0  0  0  0  0
   24.3955  -16.4834    0.0000 C   0  0  0  0  0  0  0  0  0  0  0  0
   25.8219  -16.0198    0.0000 C   0  0  0  0  0  0  0  0  0  0  0  0
   26.1339  -14.5527    0.0000 N   0  0  0  0  0  0  0  0  0  0  0  0
   27.5605  -14.0890    0.0000 C   0  0  2  0  0  0  0  0  0  0  0  0
   28.0239  -12.6625    0.0000 C   0  0  0  0  0  0  0  0  0  0  0  0
   29.5239  -12.6625    0.0000 N   0  0  0  0  0  0  0  0  0  0  0  0
   29.9876  -14.0890    0.0000 C   0  0  0  0  0  0  0  0  0  0  0  0
   28.7739  -14.9709    0.0000 C   0  0  1  0  0  0  0  0  0  0  0  0
   28.7739  -16.4709    0.0000 C   0  0  0  0  0  0  0  0  0  0  0  0
   29.5239  -17.7700    0.0000 C   0  0  0  0  0  0  0  0  0  0  0  0
   28.0239  -17.7700    0.0000 C   0  0  0  0  0  0  0  0  0  0  0  0
   30.4058  -11.4490    0.0000 C   0  0  0  0  0  0  0  0  0  0  0  0
   29.7956  -10.0788    0.0000 C   0  0  0  0  0  0  0  0  0  0  0  0
   30.6772   -8.8652    0.0000 C   0  0  0  0  0  0  0  0  0  0  0  0
   32.1691   -9.0221    0.0000 C   0  0  0  0  0  0  0  0  0  0  0  0
   33.0507   -7.8084    0.0000 Cl  0  0  0  0  0  0  0  0  0  0  0  0
   32.7791  -10.3925    0.0000 C   0  0  0  0  0  0  0  0  0  0  0  0
   31.8974  -11.6057    0.0000 C   0  0  0  0  0  0  0  0  0  0  0  0
   32.5076  -12.9761    0.0000 F   0  0  0  0  0  0  0  0  0  0  0  0
  1  2  1  0  0  0  0
  2  3  2  0  0  0  0
  2  6  1  0  0  0  0
  3  4  1  0  0  0  0
  4  5  1  0  0  0  0
  5  6  2  0  0  0  0
  6  7  1  0  0  0  0
  7  8  1  0  0  0  0
  9  8  1  6  0  0  0
  9 10  1  0  0  0  0
  9 13  1  0  0  0  0
 10 11  1  0  0  0  0
 11 12  1  0  0  0  0
 11 17  1  0  0  0  0
 13 12  1  0  0  0  0
 13 14  1  1  0  0  0
 14 15  1  0  0  0  0
 14 16  1  0  0  0  0
 15 16  1  0  0  0  0
 17 18  2  0  0  0  0
 17 23  1  0  0  0  0
 18 19  1  0  0  0  0
 19 20  2  0  0  0  0
 20 21  1  0  0  0  0
 20 22  1  0  0  0  0
 22 23  2  0  0  0  0
 23 24  1  0  0  0  0
M  END
$$$$
