
     RDKit          3D

 20 22  0  0  0  0  0  0  0  0999 V2000
    1.0271    0.7381    0.4122 C   0  0  0  0  0  0  0  0  0  0  0  0
    1.3817    0.3805   -1.1274 C   0  0  2  0  0  0  0  0  0  0  0  0
    0.3420   -0.8517   -1.2389 C   0  0  0  0  0  0  0  0  0  0  0  0
    0.2590   -1.6722   -0.1301 N   0  0  0  0  0  0  0  0  0  0  0  0
   -0.9048   -1.5401    0.7315 C   0  0  0  0  0  0  0  0  0  0  0  0
   -1.9787   -0.9027   -0.0250 C   0  0  0  0  0  0  0  0  0  0  0  0
   -2.5821   -1.3349   -1.1794 C   0  0  0  0  0  0  0  0  0  0  0  0
   -3.5734   -0.5842   -1.7858 C   0  0  0  0  0  0  0  0  0  0  0  0
   -3.9518    0.5890   -1.2893 C   0  0  0  0  0  0  0  0  0  0  0  0
   -3.3922    1.1030   -0.1053 C   0  0  0  0  0  0  0  0  0  0  0  0
   -3.7510    2.8296    0.5852 Br  0  0  0  0  0  0  0  0  0  0  0  0
   -2.4413    0.3457    0.4989 C   0  0  0  0  0  0  0  0  0  0  0  0
   -1.8956    0.7509    2.1098 Cl  0  0  0  0  0  0  0  0  0  0  0  0
    1.4426   -2.0786    0.5318 C   0  0  0  0  0  0  0  0  0  0  0  0
    2.2192   -1.0555    1.3019 C   0  0  0  0  0  0  0  0  0  0  0  0
    3.1733   -0.4403    0.4448 N   0  0  0  0  0  0  0  0  0  0  0  0
    3.7428    0.7839    0.7828 C   0  0  0  0  0  0  0  0  0  0  0  0
    3.4908    2.1062    0.2353 C   0  0  0  0  0  0  0  0  0  0  0  0
    4.7129    1.3848   -0.2264 C   0  0  0  0  0  0  0  0  0  0  0  0
    2.6798   -0.5515   -0.8929 C   0  0  0  0  0  0  0  0  0  0  0  0
  2  1  1  1
  2  3  1  0
  3  4  1  0
  4  5  1  0
  5  6  1  0
  6  7  2  0
  7  8  1  0
  8  9  2  0
  9 10  1  0
 10 11  1  0
 10 12  2  0
 12 13  1  0
  4 14  1  0
 14 15  1  0
 15 16  1  0
 16 17  1  0
 17 18  1  0
 18 19  1  0
 16 20  1  0
 20  2  1  0
 12  6  1  0
 19 17  1  0
M  END
>  <zinc_id>  (1) 
ZINC001170690351

>  <smiles>  (1) 
C[C@@H]1CN(Cc2cccc(Br)c2Cl)CCN(C2CC2)C1

$$$$
