
     RDKit          3D

 25 27  0  0  0  0  0  0  0  0999 V2000
    2.4899    0.9553    0.4522 O   0  0  0  0  0  0  0  0  0  0  0  0
    2.9641   -0.4855    0.7150 C   0  0  1  0  0  0  0  0  0  0  0  0
    2.6249   -0.9308   -0.8659 C   0  0  0  0  0  0  0  0  0  0  0  0
    1.1989   -0.6817   -0.9533 N   0  0  0  0  0  0  0  0  0  0  0  0
    0.5723   -1.7995    0.0123 C   0  0  2  0  0  0  0  0  0  0  0  0
   -0.8820   -1.9368   -0.7524 C   0  0  0  0  0  0  0  0  0  0  0  0
   -1.2083   -0.7493   -1.5153 C   0  0  0  0  0  0  0  0  0  0  0  0
   -0.9967    0.4895   -0.6579 C   0  0  0  0  0  0  0  0  0  0  0  0
   -1.0084    0.0273    0.7025 N   0  0  0  0  0  0  0  0  0  0  0  0
   -2.2415   -0.7559    0.8371 C   0  0  0  0  0  0  0  0  0  0  0  0
   -3.3877    0.1377    0.5294 C   0  0  0  0  0  0  0  0  0  0  0  0
   -3.2410    1.4477    0.1875 C   0  0  0  0  0  0  0  0  0  0  0  0
   -4.2985    2.2916   -0.1037 C   0  0  0  0  0  0  0  0  0  0  0  0
   -5.5616    1.7613   -0.0402 C   0  0  0  0  0  0  0  0  0  0  0  0
   -6.6471    2.5340   -0.3152 F   0  0  0  0  0  0  0  0  0  0  0  0
   -5.7504    0.4440    0.3010 C   0  0  0  0  0  0  0  0  0  0  0  0
   -4.6702   -0.3709    0.5861 C   0  0  0  0  0  0  0  0  0  0  0  0
   -4.8707   -2.0509    1.0214 Cl  0  0  0  0  0  0  0  0  0  0  0  0
    0.1020   -0.6879    1.1364 C   0  0  0  0  0  0  0  0  0  0  0  0
    4.5162   -0.1714    0.4039 C   0  0  0  0  0  0  0  0  0  0  0  0
    5.2090   -1.0568   -0.3342 C   0  0  0  0  0  0  0  0  0  0  0  0
    6.5448   -0.8138   -0.5919 C   0  0  0  0  0  0  0  0  0  0  0  0
    7.1516    0.3223   -0.0968 C   0  0  0  0  0  0  0  0  0  0  0  0
    6.3454    1.1611    0.6467 C   0  0  0  0  0  0  0  0  0  0  0  0
    5.0450    0.9195    0.8948 N   0  0  0  0  0  0  0  0  0  0  0  0
  2  1  1  6
  2  3  1  0
  3  4  1  0
  5  4  1  6
  5  6  1  0
  6  7  1  0
  7  8  1  0
  8  9  1  0
  9 10  1  0
 10 11  1  0
 11 12  2  0
 12 13  1  0
 13 14  2  0
 14 15  1  0
 14 16  1  0
 16 17  2  0
 17 18  1  0
  9 19  1  0
  2 20  1  0
 20 21  2  0
 21 22  1  0
 22 23  2  0
 23 24  1  0
 24 25  2  0
 19  5  1  0
 25 20  1  0
 17 11  1  0
M  END
>  <zinc_id>  (1) 
ZINC000853098204

>  <smiles>  (1) 
O[C@@H](CN[C@@H]1CCCN(Cc2ccc(F)cc2Cl)C1)c1ccccn1

$$$$
