
     RDKit          3D

 20 21  0  0  0  0  0  0  0  0999 V2000
    0.1679   -0.2328   -2.1010 C   0  0  0  0  0  0  0  0  0  0  0  0
    1.3377   -0.8476   -1.1702 C   0  0  1  0  0  0  0  0  0  0  0  0
    1.2765    0.4279   -0.1345 C   0  0  0  0  0  0  0  0  0  0  0  0
    2.5394    0.1061    0.5811 N   0  0  0  0  0  0  0  0  0  0  0  0
    3.4988    0.0954   -0.4597 C   0  0  0  0  0  0  0  0  0  0  0  0
    5.0154    0.0495    0.1220 C   0  0  1  0  0  0  0  0  0  0  0  0
    4.7332    0.9921    1.4461 C   0  0  0  0  0  0  0  0  0  0  0  0
    4.8183   -1.2302    0.8809 O   0  0  0  0  0  0  0  0  0  0  0  0
    2.3193   -1.2107    1.1649 C   0  0  0  0  0  0  0  0  0  0  0  0
    0.8698   -1.6680    1.0643 C   0  0  0  0  0  0  0  0  0  0  0  0
    0.3805   -1.6642   -0.2272 N   0  0  0  0  0  0  0  0  0  0  0  0
   -0.8556   -1.7682   -0.6602 C   0  0  0  0  0  0  0  0  0  0  0  0
   -1.8650   -0.7820   -0.2566 C   0  0  0  0  0  0  0  0  0  0  0  0
   -1.6126    0.2739    0.6235 C   0  0  0  0  0  0  0  0  0  0  0  0
   -2.6843    1.0978    0.9021 C   0  0  0  0  0  0  0  0  0  0  0  0
   -3.9311    0.9202    0.3655 C   0  0  0  0  0  0  0  0  0  0  0  0
   -5.2992    2.1424    0.8165 Br  0  0  0  0  0  0  0  0  0  0  0  0
   -4.1685   -0.1160   -0.4903 N   0  0  0  0  0  0  0  0  0  0  0  0
   -3.1311   -0.9354   -0.7764 C   0  0  0  0  0  0  0  0  0  0  0  0
   -3.4094   -2.0169   -1.6910 N   0  0  0  0  0  0  0  0  0  0  0  0
  2  1  1  6
  2  3  1  0
  3  4  1  0
  4  5  1  0
  5  6  1  0
  6  7  1  1
  6  8  1  0
  4  9  1  0
  9 10  1  0
 10 11  1  0
 11 12  1  0
 12 13  1  0
 13 14  2  0
 14 15  1  0
 15 16  2  0
 16 17  1  0
 16 18  1  0
 18 19  2  0
 19 20  1  0
 11  2  1  0
 19 13  1  0
M  END
>  <zinc_id>  (1) 
ZINC001332938263

>  <smiles>  (1) 
C[C@H]1CN(C[C@@H](C)O)CCN1Cc1ccc(Br)nc1N

$$$$
