
     RDKit          3D

 21 23  0  0  0  0  0  0  0  0999 V2000
    4.1445    2.2044    1.7342 C   0  0  0  0  0  0  0  0  0  0  0  0
    4.7948    1.1059    0.9385 C   0  0  0  0  0  0  0  0  0  0  0  0
    6.1597    0.8271    0.9161 C   0  0  0  0  0  0  0  0  0  0  0  0
    6.2726   -0.2029    0.0420 N   0  0  0  0  0  0  0  0  0  0  0  0
    5.0842   -0.5317   -0.4315 N   0  0  0  0  0  0  0  0  0  0  0  0
    4.0966    0.2716    0.1061 C   0  0  0  0  0  0  0  0  0  0  0  0
    2.7632   -0.0259   -0.2677 C   0  0  0  0  0  0  0  0  0  0  0  0
    1.7390    0.6884   -0.6874 N   0  0  0  0  0  0  0  0  0  0  0  0
    0.6712   -0.3550   -1.1276 C   0  0  1  0  0  0  0  0  0  0  0  0
    0.5673   -1.1569    0.3412 C   0  0  0  0  0  0  0  0  0  0  0  0
   -0.7953   -1.8143    0.1306 C   0  0  0  0  0  0  0  0  0  0  0  0
   -1.2636   -1.7484   -1.2370 C   0  0  0  0  0  0  0  0  0  0  0  0
   -1.6160   -0.1955   -1.6744 C   0  0  1  0  0  0  0  0  0  0  0  0
   -2.9228   -0.0607   -0.8012 C   0  0  0  0  0  0  0  0  0  0  0  0
   -4.0940   -0.0534   -1.5605 C   0  0  0  0  0  0  0  0  0  0  0  0
   -5.3209    0.0352   -0.9478 C   0  0  0  0  0  0  0  0  0  0  0  0
   -5.4088    0.1138    0.4288 C   0  0  0  0  0  0  0  0  0  0  0  0
   -7.0162    0.1736    1.2288 Cl  0  0  0  0  0  0  0  0  0  0  0  0
   -4.2295    0.1035    1.1393 C   0  0  0  0  0  0  0  0  0  0  0  0
   -3.0214    0.0167    0.4877 C   0  0  0  0  0  0  0  0  0  0  0  0
   -0.6046    0.6047   -0.6950 C   0  0  0  0  0  0  0  0  0  0  0  0
  1  2  1  0
  2  3  2  0
  3  4  1  0
  4  5  1  0
  5  6  2  0
  6  7  1  0
  7  8  1  0
  9  8  1  1
  9 10  1  0
 10 11  1  0
 11 12  1  0
 12 13  1  0
 13 14  1  1
 14 15  2  0
 15 16  1  0
 16 17  2  0
 17 18  1  0
 17 19  1  0
 19 20  2  0
 13 21  1  0
  6  2  1  0
 21  9  1  0
 20 14  1  0
M  END
>  <zinc_id>  (1) 
ZINC000449730871

>  <smiles>  (1) 
Cc1c[nH]nc1CN[C@H]1CCC[C@@H](c2ccc(Cl)cc2)C1

$$$$
