
     RDKit          3D

 24 26  0  0  0  0  0  0  0  0999 V2000
   -2.9878   -1.9355    0.1047 O   0  0  0  0  0  0  0  0  0  0  0  0
   -2.8326   -0.8113   -0.9375 C   0  0  2  0  0  0  0  0  0  0  0  0
   -1.6260   -0.0345   -0.0726 C   0  0  0  0  0  0  0  0  0  0  0  0
   -0.5702   -0.9721    0.0425 N   0  0  0  0  0  0  0  0  0  0  0  0
   -0.0220   -1.1290   -1.4407 C   0  0  1  0  0  0  0  0  0  0  0  0
    0.4502    0.4553   -1.5595 C   0  0  0  0  0  0  0  0  0  0  0  0
    1.2135    0.6053   -0.2726 C   0  0  0  0  0  0  0  0  0  0  0  0
    2.0939   -0.5207   -0.5006 N   0  0  0  0  0  0  0  0  0  0  0  0
    3.4803   -0.3861   -0.2855 C   0  0  0  0  0  0  0  0  0  0  0  0
    4.3635   -0.5951   -1.3226 C   0  0  0  0  0  0  0  0  0  0  0  0
    5.7074   -0.4597   -1.0946 C   0  0  0  0  0  0  0  0  0  0  0  0
    6.2271   -0.1214    0.1323 C   0  0  0  0  0  0  0  0  0  0  0  0
    7.9762    0.0389    0.3636 Cl  0  0  0  0  0  0  0  0  0  0  0  0
    5.3487    0.0878    1.1699 C   0  0  0  0  0  0  0  0  0  0  0  0
    3.9973   -0.0423    0.9636 C   0  0  0  0  0  0  0  0  0  0  0  0
    3.0696    0.1503    1.9445 F   0  0  0  0  0  0  0  0  0  0  0  0
    1.4541   -1.6765   -0.9305 C   0  0  0  0  0  0  0  0  0  0  0  0
   -4.0198    0.0766   -0.3557 C   0  0  0  0  0  0  0  0  0  0  0  0
   -3.8729    1.3976   -0.1787 C   0  0  0  0  0  0  0  0  0  0  0  0
   -4.8830    2.2271    0.3216 C   0  0  0  0  0  0  0  0  0  0  0  0
   -6.0683    1.5749    0.6262 C   0  0  0  0  0  0  0  0  0  0  0  0
   -7.0603    2.3885    1.1165 F   0  0  0  0  0  0  0  0  0  0  0  0
   -6.2481    0.2293    0.4564 C   0  0  0  0  0  0  0  0  0  0  0  0
   -5.1908   -0.5472   -0.0513 C   0  0  0  0  0  0  0  0  0  0  0  0
  2  1  1  1
  2  3  1  0
  3  4  1  0
  5  4  1  1
  5  6  1  0
  6  7  1  0
  7  8  1  0
  8  9  1  0
  9 10  2  0
 10 11  1  0
 11 12  2  0
 12 13  1  0
 12 14  1  0
 14 15  2  0
 15 16  1  0
  8 17  1  0
  2 18  1  0
 18 19  2  0
 19 20  1  0
 20 21  2  0
 21 22  1  0
 21 23  1  0
 23 24  2  0
 17  5  1  0
 24 18  1  0
 15  9  1  0
M  END
>  <zinc_id>  (1) 
ZINC000863582102

>  <smiles>  (1) 
O[C@H](CN[C@H]1CCN(c2ccc(Cl)cc2F)C1)c1ccc(F)cc1

$$$$
