
     RDKit          3D

 22 24  0  0  0  0  0  0  0  0999 V2000
   -2.5129    2.1878   -1.1547 C   0  0  0  0  0  0  0  0  0  0  0  0
   -3.4930    1.9211   -0.0254 C   0  0  0  0  0  0  0  0  0  0  0  0
   -4.4139    0.8678   -0.3362 N   0  0  0  0  0  0  0  0  0  0  0  0
   -5.5968    0.9969   -0.9347 C   0  0  0  0  0  0  0  0  0  0  0  0
   -6.1869   -0.2276   -1.0601 N   0  0  0  0  0  0  0  0  0  0  0  0
   -5.3165   -1.1095   -0.5138 C   0  0  0  0  0  0  0  0  0  0  0  0
   -4.2175   -0.4147   -0.0672 C   0  0  0  0  0  0  0  0  0  0  0  0
   -3.0171   -0.9649    0.5969 C   0  0  0  0  0  0  0  0  0  0  0  0
   -2.1782   -1.5428   -0.4138 N   0  0  0  0  0  0  0  0  0  0  0  0
   -1.0206   -2.1060    0.2522 C   0  0  0  0  0  0  0  0  0  0  0  0
   -0.2847   -0.7366    0.7546 C   0  0  2  0  0  0  0  0  0  0  0  0
   -0.1104   -0.1624   -0.7616 C   0  0  0  0  0  0  0  0  0  0  0  0
    1.0819   -0.8813   -1.2618 C   0  0  0  0  0  0  0  0  0  0  0  0
    1.9385   -0.7775   -0.1256 N   0  0  0  0  0  0  0  0  0  0  0  0
    3.1881   -0.1797   -0.0352 C   0  0  0  0  0  0  0  0  0  0  0  0
    3.8965   -0.1889    1.1637 C   0  0  0  0  0  0  0  0  0  0  0  0
    5.1376    0.4039    1.2461 C   0  0  0  0  0  0  0  0  0  0  0  0
    5.6949    1.0152    0.1402 C   0  0  0  0  0  0  0  0  0  0  0  0
    7.4110    1.8413    0.2269 Br  0  0  0  0  0  0  0  0  0  0  0  0
    5.0174    1.0457   -1.0783 C   0  0  0  0  0  0  0  0  0  0  0  0
    3.8008    0.4538   -1.1237 C   0  0  0  0  0  0  0  0  0  0  0  0
    1.1820   -1.4416    0.8681 C   0  0  0  0  0  0  0  0  0  0  0  0
  1  2  1  0
  2  3  1  0
  3  4  1  0
  4  5  2  0
  5  6  1  0
  6  7  2  0
  7  8  1  0
  8  9  1  0
  9 10  1  0
 11 10  1  6
 11 12  1  0
 12 13  1  0
 13 14  1  0
 14 15  1  0
 15 16  2  0
 16 17  1  0
 17 18  2  0
 18 19  1  0
 18 20  1  0
 20 21  2  0
 14 22  1  0
  7  3  1  0
 22 11  1  0
 21 15  1  0
M  END
>  <zinc_id>  (1) 
ZINC000417864931

>  <smiles>  (1) 
CCn1cncc1CNC[C@@H]1CCN(c2ccc(Br)cc2)C1

$$$$
