
     RDKit          3D

 21 23  0  0  0  0  0  0  0  0999 V2000
    3.1718    0.8932   -1.3231 C   0  0  0  0  0  0  0  0  0  0  0  0
    4.1339    0.8472   -0.1960 C   0  0  0  0  0  0  0  0  0  0  0  0
    5.4202    1.1557   -0.0841 C   0  0  0  0  0  0  0  0  0  0  0  0
    5.9401    0.8724    1.1103 N   0  0  0  0  0  0  0  0  0  0  0  0
    4.9367    0.3391    1.8624 N   0  0  0  0  0  0  0  0  0  0  0  0
    3.8383    0.3167    1.1470 C   0  0  0  0  0  0  0  0  0  0  0  0
    2.4324    0.0225    1.3715 C   0  0  0  0  0  0  0  0  0  0  0  0
    1.9708   -1.0105    0.3672 N   0  0  0  0  0  0  0  0  0  0  0  0
    0.5643   -0.2346    0.1215 C   0  0  1  0  0  0  0  0  0  0  0  0
    0.2481   -1.0442   -1.2813 C   0  0  0  0  0  0  0  0  0  0  0  0
   -0.6492   -2.2154   -0.8565 C   0  0  0  0  0  0  0  0  0  0  0  0
   -1.3667   -1.4076    0.0835 N   0  0  0  0  0  0  0  0  0  0  0  0
   -2.5284   -0.7203    0.2650 C   0  0  0  0  0  0  0  0  0  0  0  0
   -3.2588   -0.6736    1.3899 C   0  0  0  0  0  0  0  0  0  0  0  0
   -4.3815    0.1017    1.6419 C   0  0  0  0  0  0  0  0  0  0  0  0
   -4.7713    0.9426    0.5522 C   0  0  0  0  0  0  0  0  0  0  0  0
   -6.1546    1.9467    0.7214 Cl  0  0  0  0  0  0  0  0  0  0  0  0
   -4.0512    0.8901   -0.5862 C   0  0  0  0  0  0  0  0  0  0  0  0
   -2.9525    0.1112   -0.7741 C   0  0  0  0  0  0  0  0  0  0  0  0
   -2.2574    0.1847   -1.8770 F   0  0  0  0  0  0  0  0  0  0  0  0
   -0.2849   -1.3176    1.1027 C   0  0  0  0  0  0  0  0  0  0  0  0
  1  2  1  0
  2  3  2  0
  3  4  1  0
  4  5  1  0
  5  6  2  0
  6  7  1  0
  7  8  1  0
  9  8  1  1
  9 10  1  0
 10 11  1  0
 11 12  1  0
 12 13  1  0
 13 14  2  0
 14 15  1  0
 15 16  2  0
 16 17  1  0
 16 18  1  0
 18 19  2  0
 19 20  1  0
 12 21  1  0
  6  2  1  0
 21  9  1  0
 19 13  1  0
M  END
>  <zinc_id>  (1) 
ZINC000623756919

>  <smiles>  (1) 
Cc1c[nH]nc1CN[C@H]1CCN(c2ccc(Cl)cc2F)C1

$$$$
