
     RDKit          3D

 18 20  0  0  0  0  0  0  0  0999 V2000
   -6.1102   -0.4630    0.6178 Br  0  0  0  0  0  0  0  0  0  0  0  0
   -4.4267    0.1461   -0.0203 C   0  0  0  0  0  0  0  0  0  0  0  0
   -4.4250    1.0088   -1.0928 C   0  0  0  0  0  0  0  0  0  0  0  0
   -3.2372    1.4738   -1.5868 C   0  0  0  0  0  0  0  0  0  0  0  0
   -2.0627    1.0727   -1.0049 C   0  0  0  0  0  0  0  0  0  0  0  0
   -2.0120    0.2056    0.0767 C   0  0  0  0  0  0  0  0  0  0  0  0
   -0.7355   -0.2158    0.6911 C   0  0  0  0  0  0  0  0  0  0  0  0
   -0.7481   -1.0770    1.7609 C   0  0  0  0  0  0  0  0  0  0  0  0
    0.9440   -1.2374    2.0801 S   0  0  0  0  0  0  0  0  0  0  0  0
    1.5007   -0.1992    0.8287 C   0  0  0  0  0  0  0  0  0  0  0  0
    2.8774    0.1068    0.5458 N   0  0  0  0  0  0  0  0  0  0  0  0
    3.9414   -0.4711    1.3396 C   0  0  0  0  0  0  0  0  0  0  0  0
    5.1228   -0.6933    0.4468 C   0  0  0  0  0  0  0  0  0  0  0  0
    4.6788   -0.9523   -0.8985 N   0  0  0  0  0  0  0  0  0  0  0  0
    4.2704    0.3420   -1.4607 C   0  0  0  0  0  0  0  0  0  0  0  0
    3.2472    0.9949   -0.5323 C   0  0  0  0  0  0  0  0  0  0  0  0
    0.4057    0.1942    0.2622 N   0  0  0  0  0  0  0  0  0  0  0  0
   -3.2310   -0.2359    0.5394 C   0  0  0  0  0  0  0  0  0  0  0  0
  1  2  1  0
  2  3  2  0
  3  4  1  0
  4  5  2  0
  5  6  1  0
  6  7  1  0
  7  8  2  0
  8  9  1  0
  9 10  1  0
 10 11  1  0
 11 12  1  0
 12 13  1  0
 13 14  1  0
 14 15  1  0
 15 16  1  0
 10 17  2  0
  6 18  2  0
 18  2  1  0
 17  7  1  0
 16 11  1  0
M  END
>  <zinc_id>  (1) 
ZINC000044494100

>  <smiles>  (1) 
Brc1cccc(-c2csc(N3CCNCC3)n2)c1

$$$$
