
     RDKit          3D

 24 27  0  0  0  0  0  0  0  0999 V2000
   -2.7809    3.4326   -0.0891 O   0  0  0  0  0  0  0  0  0  0  0  0
   -3.8867    2.9132    0.6119 C   0  0  0  0  0  0  0  0  0  0  0  0
   -3.4283    1.6249    1.2419 C   0  0  0  0  0  0  0  0  0  0  0  0
   -3.0046    0.7311    0.3094 N   0  0  0  0  0  0  0  0  0  0  0  0
   -2.6472   -0.0949   -0.1031 C   0  0  0  0  0  0  0  0  0  0  0  0
   -3.5577   -1.6145   -0.3762 C   0  0  0  0  0  0  0  0  0  0  0  0
   -3.1198   -2.6628   -0.2506 C   0  0  0  0  0  0  0  0  0  0  0  0
   -2.3612   -1.5206    0.6136 C   0  0  2  0  0  0  0  0  0  0  0  0
   -3.8257   -0.5373    0.4838 C   0  0  2  0  0  0  0  0  0  0  0  0
   -3.9812   -0.5417   -1.1950 C   0  0  0  0  0  0  0  0  0  0  0  0
   -2.5195   -0.6470   -1.7346 C   0  0  0  0  0  0  0  0  0  0  0  0
   -1.6225   -1.1173   -0.6774 N   0  0  0  0  0  0  0  0  0  0  0  0
   -0.2784   -1.2202   -0.7786 C   0  0  0  0  0  0  0  0  0  0  0  0
    0.7004   -0.4520   -0.3868 N   0  0  0  0  0  0  0  0  0  0  0  0
    1.9273   -0.7978   -0.6304 C   0  0  0  0  0  0  0  0  0  0  0  0
    3.0984    0.0174   -0.2017 C   0  0  0  0  0  0  0  0  0  0  0  0
    2.9413    1.1758    0.5378 C   0  0  0  0  0  0  0  0  0  0  0  0
    4.0446    1.9194    0.9178 C   0  0  0  0  0  0  0  0  0  0  0  0
    5.3299    1.5628    0.5932 C   0  0  0  0  0  0  0  0  0  0  0  0
    6.4185    2.2873    0.9594 F   0  0  0  0  0  0  0  0  0  0  0  0
    5.4875    0.3911   -0.1544 C   0  0  0  0  0  0  0  0  0  0  0  0
    4.3832   -0.3404   -0.5261 C   0  0  0  0  0  0  0  0  0  0  0  0
    2.1400   -1.9794   -1.3030 C   0  0  0  0  0  0  0  0  0  0  0  0
    0.5426   -2.5299   -1.5473 S   0  0  0  0  0  0  0  0  0  0  0  0
  1  2  1  0
  2  3  1  0
  3  4  1  0
  4  5  1  0
  5  6  1  0
  6  7  1  0
  8  7  1  6
  8  9  1  0
  9 10  1  6
 10 11  1  0
 11 12  1  0
 12 13  1  0
 13 14  2  0
 14 15  1  0
 15 16  1  0
 16 17  2  0
 17 18  1  0
 18 19  2  0
 19 20  1  0
 19 21  1  0
 21 22  2  0
 15 23  2  0
 23 24  1  0
  9  4  1  0
 24 13  1  0
 12  8  1  0
 22 16  1  0
M  END
>  <zinc_id>  (1) 
ZINC000897222313

>  <smiles>  (1) 
OCCN1CCC[C@@H]2[C@@H]1CCN2c1nc(-c2ccc(F)cc2)cs1

$$$$
