
     RDKit          3D

 21 24  0  0  0  0  0  0  0  0999 V2000
   -6.4131   -0.0503    1.2400 F   0  0  0  0  0  0  0  0  0  0  0  0
   -5.1725   -0.2571    0.7497 C   0  0  0  0  0  0  0  0  0  0  0  0
   -5.0200   -1.1379   -0.2775 C   0  0  0  0  0  0  0  0  0  0  0  0
   -3.7810   -1.4153   -0.8472 C   0  0  0  0  0  0  0  0  0  0  0  0
   -2.6968   -0.7517   -0.3213 C   0  0  0  0  0  0  0  0  0  0  0  0
   -1.3548   -1.0187   -0.9006 C   0  0  0  0  0  0  0  0  0  0  0  0
   -1.1736   -1.8998   -1.9338 C   0  0  0  0  0  0  0  0  0  0  0  0
    0.5046   -1.8213   -2.1920 S   0  0  0  0  0  0  0  0  0  0  0  0
    0.9049   -0.6617   -0.9642 C   0  0  0  0  0  0  0  0  0  0  0  0
    2.1567   -0.1224   -0.6134 N   0  0  0  0  0  0  0  0  0  0  0  0
    3.3503   -0.4906   -1.2762 C   0  0  0  0  0  0  0  0  0  0  0  0
    4.4785   -0.3622   -0.2959 C   0  0  0  0  0  0  0  0  0  0  0  0
    4.7159    1.1592    0.1306 C   0  0  2  0  0  0  0  0  0  0  0  0
    4.2748    0.9575    1.6661 C   0  0  0  0  0  0  0  0  0  0  0  0
    3.5794    2.1410    1.9797 N   0  0  0  0  0  0  0  0  0  0  0  0
    3.3119    2.9446    0.8580 C   0  0  0  0  0  0  0  0  0  0  0  0
    3.2611    1.8448   -0.3518 C   0  0  2  0  0  0  0  0  0  0  0  0
    2.2707    0.8244    0.4330 C   0  0  0  0  0  0  0  0  0  0  0  0
   -0.2918   -0.4206   -0.4444 N   0  0  0  0  0  0  0  0  0  0  0  0
   -2.8379    0.1333    0.7082 C   0  0  0  0  0  0  0  0  0  0  0  0
   -4.0673    0.4048    1.2694 C   0  0  0  0  0  0  0  0  0  0  0  0
  1  2  1  0
  2  3  2  0
  3  4  1  0
  4  5  2  0
  5  6  1  0
  6  7  2  0
  7  8  1  0
  8  9  1  0
  9 10  1  0
 10 11  1  0
 11 12  1  0
 13 12  1  6
 13 14  1  0
 14 15  1  0
 15 16  1  0
 17 16  1  1
 17 18  1  0
  9 19  2  0
  5 20  1  0
 20 21  2  0
 21  2  1  0
 19  6  1  0
 18 10  1  0
 17 13  1  0
M  END
>  <zinc_id>  (1) 
ZINC000420267969

>  <smiles>  (1) 
Fc1ccc(-c2csc(N3CC[C@@H]4CNC[C@@H]4C3)n2)cc1

$$$$
