
     RDKit          3D

 24 27  0  0  0  0  0  0  0  0999 V2000
    8.5426   -0.2689   -0.7283 Br  0  0  0  0  0  0  0  0  0  0  0  0
    6.6952    0.0961   -0.5679 C   0  0  0  0  0  0  0  0  0  0  0  0
    5.7728   -0.7592   -1.1036 C   0  0  0  0  0  0  0  0  0  0  0  0
    4.4623   -0.5604   -0.9923 C   0  0  0  0  0  0  0  0  0  0  0  0
    3.9066    0.5683   -0.2962 C   0  0  0  0  0  0  0  0  0  0  0  0
    2.5216    0.6584   -0.1707 N   0  0  0  0  0  0  0  0  0  0  0  0
    1.6656    1.6971    0.2427 C   0  0  0  0  0  0  0  0  0  0  0  0
    0.5536    1.0312    1.0455 C   0  0  0  0  0  0  0  0  0  0  0  0
    1.2797   -0.4409    1.3085 C   0  0  1  0  0  0  0  0  0  0  0  0
    0.0096   -1.3386    1.0589 C   0  0  0  0  0  0  0  0  0  0  0  0
   -1.1006   -1.1087    1.8806 N   0  0  0  0  0  0  0  0  0  0  0  0
   -1.6004    0.2462    1.5104 C   0  0  0  0  0  0  0  0  0  0  0  0
   -2.9809    0.0652    0.9477 C   0  0  0  0  0  0  0  0  0  0  0  0
   -3.1441   -0.1075   -0.4496 C   0  0  0  0  0  0  0  0  0  0  0  0
   -4.4902   -0.2396   -0.6559 C   0  0  0  0  0  0  0  0  0  0  0  0
   -5.3136   -0.4169   -1.7492 C   0  0  0  0  0  0  0  0  0  0  0  0
   -6.6383   -0.5002   -1.6170 N   0  0  0  0  0  0  0  0  0  0  0  0
   -7.1904   -0.4186   -0.4259 C   0  0  0  0  0  0  0  0  0  0  0  0
   -6.4379   -0.2351    0.7443 C   0  0  0  0  0  0  0  0  0  0  0  0
   -5.0791   -0.1522    0.5827 C   0  0  0  0  0  0  0  0  0  0  0  0
   -4.1190    0.0270    1.4980 O   0  0  0  0  0  0  0  0  0  0  0  0
    1.6319   -0.4615   -0.3818 C   0  0  0  0  0  0  0  0  0  0  0  0
    4.8401    1.4245    0.2412 C   0  0  0  0  0  0  0  0  0  0  0  0
    6.2131    1.1944    0.1109 C   0  0  0  0  0  0  0  0  0  0  0  0
  1  2  1  0
  2  3  2  0
  3  4  1  0
  4  5  2  0
  5  6  1  0
  6  7  1  0
  7  8  1  0
  8  9  1  0
  9 10  1  6
 10 11  1  0
 11 12  1  0
 12 13  1  0
 13 14  2  0
 14 15  1  0
 15 16  2  0
 16 17  1  0
 17 18  2  0
 18 19  1  0
 19 20  2  0
 20 21  1  0
  9 22  1  0
  5 23  1  0
 23 24  2  0
 24  2  1  0
 22  6  1  0
 21 13  1  0
 20 15  1  0
M  END
>  <zinc_id>  (1) 
ZINC000651685066

>  <smiles>  (1) 
Brc1ccc(N2CC[C@@H](CNCc3cc4cnccc4o3)C2)cc1

$$$$
