
     RDKit          3D

 18 20  0  0  0  0  0  0  0  0999 V2000
   -6.0003    0.7046   -0.8630 F   0  0  0  0  0  0  0  0  0  0  0  0
   -4.7042    0.4250   -0.4973 C   0  0  0  0  0  0  0  0  0  0  0  0
   -3.6452    0.7885   -1.3032 C   0  0  0  0  0  0  0  0  0  0  0  0
   -2.3502    0.5047   -0.9294 C   0  0  0  0  0  0  0  0  0  0  0  0
   -2.0595   -0.1464    0.2508 C   0  0  0  0  0  0  0  0  0  0  0  0
   -0.6648   -0.4558    0.6604 C   0  0  0  0  0  0  0  0  0  0  0  0
   -0.3998   -1.1046    1.8394 C   0  0  0  0  0  0  0  0  0  0  0  0
    1.3041   -1.2028    1.8177 S   0  0  0  0  0  0  0  0  0  0  0  0
    1.5747   -0.4230    0.3296 C   0  0  0  0  0  0  0  0  0  0  0  0
    2.8371   -0.1521   -0.3280 N   0  0  0  0  0  0  0  0  0  0  0  0
    4.0221   -0.5854    0.3381 C   0  0  0  0  0  0  0  0  0  0  0  0
    5.1406    0.3782    0.0124 C   0  0  0  0  0  0  0  0  0  0  0  0
    5.2401    0.4360   -1.4419 N   0  0  0  0  0  0  0  0  0  0  0  0
    4.1023    1.1611   -1.9687 C   0  0  0  0  0  0  0  0  0  0  0  0
    2.7911    0.5273   -1.5904 C   0  0  0  0  0  0  0  0  0  0  0  0
    0.3565   -0.1263   -0.0775 N   0  0  0  0  0  0  0  0  0  0  0  0
   -3.1230   -0.5036    1.0456 C   0  0  0  0  0  0  0  0  0  0  0  0
   -4.4216   -0.2253    0.6824 C   0  0  0  0  0  0  0  0  0  0  0  0
  1  2  1  0
  2  3  2  0
  3  4  1  0
  4  5  2  0
  5  6  1  0
  6  7  2  0
  7  8  1  0
  8  9  1  0
  9 10  1  0
 10 11  1  0
 11 12  1  0
 12 13  1  0
 13 14  1  0
 14 15  1  0
  9 16  2  0
  5 17  1  0
 17 18  2  0
 18  2  1  0
 16  6  1  0
 15 10  1  0
M  END
>  <zinc_id>  (1) 
ZINC000006658090

>  <smiles>  (1) 
Fc1ccc(-c2csc(N3CCNCC3)n2)cc1

$$$$
