
     RDKit          3D

 23 24  0  0  0  0  0  0  0  0999 V2000
    2.5568    0.3797   -3.6310 C   0  0  0  0  0  0  0  0  0  0  0  0
    3.5235    0.3261   -2.4834 C   0  0  0  0  0  0  0  0  0  0  0  0
    4.8768    0.5812   -2.6884 C   0  0  0  0  0  0  0  0  0  0  0  0
    5.6996    0.5165   -1.6076 C   0  0  0  0  0  0  0  0  0  0  0  0
    5.2593    0.2119   -0.3252 C   0  0  0  0  0  0  0  0  0  0  0  0
    6.1805    0.1581    0.7833 C   0  0  0  0  0  0  0  0  0  0  0  0
    6.9335    0.1116    1.6766 N   0  0  0  0  0  0  0  0  0  0  0  0
    3.9118   -0.0317   -0.1779 C   0  0  0  0  0  0  0  0  0  0  0  0
    3.0154    0.0167   -1.2345 C   0  0  0  0  0  0  0  0  0  0  0  0
    1.6824   -0.2251   -1.0846 O   0  0  0  0  0  0  0  0  0  0  0  0
    1.1828   -0.5378    0.1899 C   0  0  0  0  0  0  0  0  0  0  0  0
   -0.4318   -0.7624   -0.0033 C   0  0  2  0  0  0  0  0  0  0  0  0
   -0.6717    0.6432   -0.5230 O   0  0  0  0  0  0  0  0  0  0  0  0
   -0.8011   -0.3543    1.5450 C   0  0  0  0  0  0  0  0  0  0  0  0
   -2.1920    0.1232    1.4401 N   0  0  0  0  0  0  0  0  0  0  0  0
   -2.6811    0.5299    2.7420 C   0  0  0  0  0  0  0  0  0  0  0  0
   -3.0521   -0.9647    1.0208 C   0  0  0  0  0  0  0  0  0  0  0  0
   -4.4520   -0.5911    0.8878 C   0  0  0  0  0  0  0  0  0  0  0  0
   -5.3500   -1.5605    0.4924 C   0  0  0  0  0  0  0  0  0  0  0  0
   -6.6954   -1.3462    0.3274 C   0  0  0  0  0  0  0  0  0  0  0  0
   -7.1903   -0.0946    0.5675 C   0  0  0  0  0  0  0  0  0  0  0  0
   -6.3263    0.8917    0.9616 C   0  0  0  0  0  0  0  0  0  0  0  0
   -4.9788    0.6673    1.1244 C   0  0  0  0  0  0  0  0  0  0  0  0
  1  2  1  0
  2  3  2  0
  3  4  1  0
  4  5  2  0
  5  6  1  0
  6  7  3  0
  5  8  1  0
  8  9  2  0
  9 10  1  0
 10 11  1  0
 11 12  1  0
 12 13  1  6
 12 14  1  0
 14 15  1  0
 15 16  1  0
 15 17  1  0
 17 18  1  0
 18 19  2  0
 19 20  1  0
 20 21  2  0
 21 22  1  0
 22 23  2  0
  9  2  1  0
 23 18  1  0
M  END
>  <zinc_id>  (1) 
ZINC000305339642

>  <smiles>  (1) 
Cc1ccc(C#N)cc1OC[C@H](O)CN(C)Cc1ccccc1

$$$$
