
     RDKit          3D

 19 21  0  0  0  0  0  0  0  0999 V2000
   -5.9747   -1.7562   -0.8694 Br  0  0  0  0  0  0  0  0  0  0  0  0
   -4.2995   -0.9326   -0.4185 C   0  0  0  0  0  0  0  0  0  0  0  0
   -3.5644   -1.3299    0.6749 C   0  0  0  0  0  0  0  0  0  0  0  0
   -2.3597   -0.7374    0.9926 C   0  0  0  0  0  0  0  0  0  0  0  0
   -1.8146    0.2855    0.2417 C   0  0  0  0  0  0  0  0  0  0  0  0
   -0.5714    0.8961    0.5712 N   0  0  0  0  0  0  0  0  0  0  0  0
    0.1837    0.5340    1.7238 C   0  0  0  0  0  0  0  0  0  0  0  0
    0.7475    1.8049    2.1325 C   0  0  0  0  0  0  0  0  0  0  0  0
    1.1146    2.5838    0.7623 C   0  0  1  0  0  0  0  0  0  0  0  0
    2.3156    1.6898    0.3253 N   0  0  0  0  0  0  0  0  0  0  0  0
    1.7941    0.3704    0.1045 C   0  0  0  0  0  0  0  0  0  0  0  0
    2.9135   -0.5028   -0.3062 C   0  0  0  0  0  0  0  0  0  0  0  0
    2.8147   -1.8660   -0.4864 C   0  0  0  0  0  0  0  0  0  0  0  0
    4.0334   -2.3203   -0.8601 N   0  0  0  0  0  0  0  0  0  0  0  0
    4.8268   -1.2380   -0.8959 C   0  0  0  0  0  0  0  0  0  0  0  0
    4.1570   -0.1390   -0.5629 N   0  0  0  0  0  0  0  0  0  0  0  0
    0.0129    1.8989   -0.2089 C   0  0  0  0  0  0  0  0  0  0  0  0
   -2.5628    0.6731   -0.8508 C   0  0  0  0  0  0  0  0  0  0  0  0
   -3.7668    0.0856   -1.1740 C   0  0  0  0  0  0  0  0  0  0  0  0
  1  2  1  0
  2  3  2  0
  3  4  1  0
  4  5  2  0
  5  6  1  0
  6  7  1  0
  7  8  1  0
  8  9  1  0
  9 10  1  6
 10 11  1  0
 11 12  1  0
 12 13  2  0
 13 14  1  0
 14 15  2  0
 15 16  1  0
  9 17  1  0
  5 18  1  0
 18 19  2  0
 19  2  1  0
 17  6  1  0
 16 12  1  0
M  END
>  <zinc_id>  (1) 
ZINC000894225026

>  <smiles>  (1) 
Brc1ccc(N2CC[C@@H](NCc3cnc[nH]3)C2)cc1

$$$$
