
     RDKit          3D

 23 26  0  0  0  0  0  0  0  0999 V2000
   -6.7275    2.8111    0.2139 Br  0  0  0  0  0  0  0  0  0  0  0  0
   -5.7578    1.1902    0.0747 C   0  0  0  0  0  0  0  0  0  0  0  0
   -6.2819    0.0070   -0.3258 C   0  0  0  0  0  0  0  0  0  0  0  0
   -5.4693   -1.1100   -0.4241 C   0  0  0  0  0  0  0  0  0  0  0  0
   -4.1315   -1.0356   -0.1179 C   0  0  0  0  0  0  0  0  0  0  0  0
   -3.5681    0.1813    0.3027 C   0  0  0  0  0  0  0  0  0  0  0  0
   -2.1973    0.2837    0.6318 N   0  0  0  0  0  0  0  0  0  0  0  0
   -1.5166    1.5158    0.9496 C   0  0  0  0  0  0  0  0  0  0  0  0
   -0.2657    1.2690    0.1290 C   0  0  0  0  0  0  0  0  0  0  0  0
    0.1392   -0.1208    0.9198 C   0  0  2  0  0  0  0  0  0  0  0  0
    0.8275   -0.7410   -0.4328 C   0  0  0  0  0  0  0  0  0  0  0  0
    1.3055   -2.0249    0.0255 N   0  0  0  0  0  0  0  0  0  0  0  0
    2.3276   -1.6688    1.0369 C   0  0  0  0  0  0  0  0  0  0  0  0
    3.5515   -1.3722    0.2938 C   0  0  0  0  0  0  0  0  0  0  0  0
    4.2861   -2.1903   -0.5103 C   0  0  0  0  0  0  0  0  0  0  0  0
    5.3098   -1.4599   -1.0194 N   0  0  0  0  0  0  0  0  0  0  0  0
    5.1927   -0.1964   -0.5198 C   0  0  0  0  0  0  0  0  0  0  0  0
    4.1265   -0.1404    0.2803 N   0  0  0  0  0  0  0  0  0  0  0  0
    3.9616    1.1698    0.8785 C   0  0  0  0  0  0  0  0  0  0  0  0
    4.7835    2.0888   -0.0144 C   0  0  0  0  0  0  0  0  0  0  0  0
    5.8171    1.1355   -0.5700 C   0  0  0  0  0  0  0  0  0  0  0  0
   -1.3060   -0.8462    0.6498 C   0  0  0  0  0  0  0  0  0  0  0  0
   -4.4068    1.2543    0.3814 C   0  0  0  0  0  0  0  0  0  0  0  0
  1  2  1  0
  2  3  2  0
  3  4  1  0
  4  5  2  0
  5  6  1  0
  6  7  1  0
  7  8  1  0
  8  9  1  0
  9 10  1  0
 10 11  1  6
 11 12  1  0
 12 13  1  0
 13 14  1  0
 14 15  2  0
 15 16  1  0
 16 17  2  0
 17 18  1  0
 18 19  1  0
 19 20  1  0
 20 21  1  0
 10 22  1  0
  6 23  2  0
 23  2  1  0
 22  7  1  0
 18 14  1  0
 21 17  1  0
M  END
>  <zinc_id>  (1) 
ZINC000657329003

>  <smiles>  (1) 
Brc1cccc(N2CC[C@H](CNCc3cnc4n3CCC4)C2)c1

$$$$
