
     RDKit          3D

 25 26  0  0  0  0  0  0  0  0999 V2000
    3.0337   -0.5637    1.7084 C   0  0  0  0  0  0  0  0  0  0  0  0
    2.7019   -0.8154    0.3632 N   0  0  0  0  0  0  0  0  0  0  0  0
    1.8558    0.0456   -0.3301 C   0  0  0  0  0  0  0  0  0  0  0  0
    2.3700    1.4146   -0.6666 C   0  0  0  0  0  0  0  0  0  0  0  0
    1.2942    2.1324   -1.3755 N   0  0  0  0  0  0  0  0  0  0  0  0
    0.2622    2.4007   -0.3987 C   0  0  0  0  0  0  0  0  0  0  0  0
   -0.3255    0.8834   -0.0214 C   0  0  2  0  0  0  0  0  0  0  0  0
   -0.7435    0.6152   -1.4834 O   0  0  0  0  0  0  0  0  0  0  0  0
   -1.8500    1.5046    0.3252 C   0  0  0  0  0  0  0  0  0  0  0  0
   -2.6466    0.3586    0.0456 O   0  0  0  0  0  0  0  0  0  0  0  0
   -4.0130    0.4567    0.1921 C   0  0  0  0  0  0  0  0  0  0  0  0
   -4.5860    1.6551    0.5985 C   0  0  0  0  0  0  0  0  0  0  0  0
   -5.9449    1.7515    0.7424 C   0  0  0  0  0  0  0  0  0  0  0  0
   -6.7838    0.6588    0.4864 C   0  0  0  0  0  0  0  0  0  0  0  0
   -6.2373   -0.5482    0.0804 C   0  0  0  0  0  0  0  0  0  0  0  0
   -7.0657   -1.6752   -0.1873 C   0  0  0  0  0  0  0  0  0  0  0  0
   -7.7513   -2.5746   -0.4122 N   0  0  0  0  0  0  0  0  0  0  0  0
   -4.8600   -0.5898   -0.0494 C   0  0  0  0  0  0  0  0  0  0  0  0
    3.5283   -1.6538   -0.4062 C   0  0  0  0  0  0  0  0  0  0  0  0
    4.9489   -1.2250   -0.4694 C   0  0  0  0  0  0  0  0  0  0  0  0
    5.4668   -0.2969   -1.2971 C   0  0  0  0  0  0  0  0  0  0  0  0
    6.8017    0.0509   -1.2687 C   0  0  0  0  0  0  0  0  0  0  0  0
    7.6293   -0.5907   -0.3462 C   0  0  0  0  0  0  0  0  0  0  0  0
    7.1233   -1.5405    0.5035 C   0  0  0  0  0  0  0  0  0  0  0  0
    5.7914   -1.8544    0.4421 C   0  0  0  0  0  0  0  0  0  0  0  0
  1  2  1  0
  2  3  1  0
  3  4  1  0
  4  5  1  0
  5  6  1  0
  6  7  1  0
  7  8  1  6
  7  9  1  0
  9 10  1  0
 10 11  1  0
 11 12  2  0
 12 13  1  0
 13 14  2  0
 14 15  1  0
 15 16  1  0
 16 17  3  0
 15 18  2  0
  2 19  1  0
 19 20  1  0
 20 21  2  0
 21 22  1  0
 22 23  2  0
 23 24  1  0
 24 25  2  0
 18 11  1  0
 25 20  1  0
M  END
>  <zinc_id>  (1) 
ZINC000387330406

>  <smiles>  (1) 
CN(CCNC[C@H](O)COc1cccc(C#N)c1)Cc1ccccc1

$$$$
