
     RDKit          3D

 22 25  0  0  0  0  0  0  0  0999 V2000
   -5.3841   -1.1573   -0.0909 C   0  0  0  0  0  0  0  0  0  0  0  0
   -5.5834    0.2593   -0.0067 N   0  0  0  0  0  0  0  0  0  0  0  0
   -5.6148    0.6325    1.4049 C   0  0  0  0  0  0  0  0  0  0  0  0
   -4.2287    0.8919    1.8918 C   0  0  0  0  0  0  0  0  0  0  0  0
   -3.4621   -0.0089    0.8007 C   0  0  2  0  0  0  0  0  0  0  0  0
   -2.1126    0.9195    0.7209 C   0  0  0  0  0  0  0  0  0  0  0  0
   -1.6152    0.3632   -0.5205 N   0  0  0  0  0  0  0  0  0  0  0  0
   -0.3208   -0.2278   -0.4908 C   0  0  0  0  0  0  0  0  0  0  0  0
    0.8341    0.1323   -0.0343 N   0  0  0  0  0  0  0  0  0  0  0  0
    1.8768   -0.6076   -0.1331 C   0  0  0  0  0  0  0  0  0  0  0  0
    3.2253   -0.2600    0.3410 C   0  0  0  0  0  0  0  0  0  0  0  0
    3.4828    0.9431    0.9678 C   0  0  0  0  0  0  0  0  0  0  0  0
    4.7586    1.2640    1.3988 C   0  0  0  0  0  0  0  0  0  0  0  0
    5.8292    0.4157    1.2290 C   0  0  0  0  0  0  0  0  0  0  0  0
    7.0514    0.7741    1.6631 F   0  0  0  0  0  0  0  0  0  0  0  0
    5.5834   -0.8021    0.5991 C   0  0  0  0  0  0  0  0  0  0  0  0
    4.3126   -1.1127    0.1754 C   0  0  0  0  0  0  0  0  0  0  0  0
    1.6949   -1.8443   -0.7725 C   0  0  0  0  0  0  0  0  0  0  0  0
    0.0270   -1.7863   -1.1552 S   0  0  0  0  0  0  0  0  0  0  0  0
   -2.3418    0.3617   -1.7630 C   0  0  0  0  0  0  0  0  0  0  0  0
   -3.7927   -0.1075   -1.5782 C   0  0  0  0  0  0  0  0  0  0  0  0
   -4.2199    0.9570   -0.4130 C   0  0  1  0  0  0  0  0  0  0  0  0
  1  2  1  0
  2  3  1  0
  3  4  1  0
  5  4  1  1
  5  6  1  0
  6  7  1  0
  7  8  1  0
  8  9  2  0
  9 10  1  0
 10 11  1  0
 11 12  2  0
 12 13  1  0
 13 14  2  0
 14 15  1  0
 14 16  1  0
 16 17  2  0
 10 18  2  0
 18 19  1  0
  7 20  1  0
 20 21  1  0
 22 21  1  6
 22  2  1  0
 22  5  1  0
 19  8  1  0
 17 11  1  0
M  END
>  <zinc_id>  (1) 
ZINC000866205875

>  <smiles>  (1) 
CN1CC[C@@H]2CN(c3nc(-c4ccc(F)cc4)cs3)CC[C@H]21

$$$$
