
     RDKit          3D

 23 26  0  0  0  0  0  0  0  0999 V2000
   -6.3631    2.5538    1.7754 Br  0  0  0  0  0  0  0  0  0  0  0  0
   -5.0537    1.3977    0.9935 C   0  0  0  0  0  0  0  0  0  0  0  0
   -3.7465    1.7934    1.0326 C   0  0  0  0  0  0  0  0  0  0  0  0
   -2.8016    0.9590    0.4687 C   0  0  0  0  0  0  0  0  0  0  0  0
   -3.1087   -0.2398   -0.1249 C   0  0  0  0  0  0  0  0  0  0  0  0
   -2.0660   -1.0783   -0.7037 C   0  0  0  0  0  0  0  0  0  0  0  0
   -2.3193   -2.2850   -1.3069 C   0  0  0  0  0  0  0  0  0  0  0  0
   -1.2468   -2.9866   -1.8169 C   0  0  0  0  0  0  0  0  0  0  0  0
    0.0102   -2.5091   -1.7293 N   0  0  0  0  0  0  0  0  0  0  0  0
    0.2560   -1.3277   -1.1384 C   0  0  0  0  0  0  0  0  0  0  0  0
    1.5315   -0.7611   -1.0071 N   0  0  0  0  0  0  0  0  0  0  0  0
    2.7596   -1.3294   -1.4692 C   0  0  0  0  0  0  0  0  0  0  0  0
    3.8624   -0.8393   -0.5549 C   0  0  0  0  0  0  0  0  0  0  0  0
    2.9457   -0.1962    0.6664 C   0  0  1  0  0  0  0  0  0  0  0  0
    3.8319    1.0966    0.8256 N   0  0  0  0  0  0  0  0  0  0  0  0
    3.8121    1.8392   -0.3687 C   0  0  0  0  0  0  0  0  0  0  0  0
    5.2511    2.2678   -0.4867 C   0  0  0  0  0  0  0  0  0  0  0  0
    6.0225    1.5903    0.3423 C   0  0  0  0  0  0  0  0  0  0  0  0
    5.1677    0.6508    1.0856 C   0  0  0  0  0  0  0  0  0  0  0  0
    1.8825    0.5014   -0.3867 C   0  0  0  0  0  0  0  0  0  0  0  0
   -0.7969   -0.6669   -0.6526 N   0  0  0  0  0  0  0  0  0  0  0  0
   -4.4319   -0.6298   -0.1589 C   0  0  0  0  0  0  0  0  0  0  0  0
   -5.3986    0.1993    0.4051 C   0  0  0  0  0  0  0  0  0  0  0  0
  1  2  1  0
  2  3  2  0
  3  4  1  0
  4  5  2  0
  5  6  1  0
  6  7  2  0
  7  8  1  0
  8  9  2  0
  9 10  1  0
 10 11  1  0
 11 12  1  0
 12 13  1  0
 13 14  1  0
 14 15  1  6
 15 16  1  0
 16 17  1  0
 17 18  2  0
 18 19  1  0
 14 20  1  0
 10 21  2  0
  5 22  1  0
 22 23  2  0
 23  2  1  0
 21  6  1  0
 20 11  1  0
 19 15  1  0
M  END
>  <zinc_id>  (1) 
ZINC000623997601

>  <smiles>  (1) 
Brc1ccc(-c2ccnc(N3CC[C@@H](N4CC=CC4)C3)n2)cc1

$$$$
