
     RDKit          3D

 22 24  0  0  0  0  0  0  0  0999 V2000
    5.3273    2.0760   -0.8794 C   0  0  0  0  0  0  0  0  0  0  0  0
    5.3307    0.7717   -0.3076 N   0  0  0  0  0  0  0  0  0  0  0  0
    5.7229    0.7364    1.0481 C   0  0  0  0  0  0  0  0  0  0  0  0
    3.8587    0.2246   -0.4320 C   0  0  1  0  0  0  0  0  0  0  0  0
    4.2108   -1.1733    0.4013 C   0  0  0  0  0  0  0  0  0  0  0  0
    3.3231   -2.1471   -0.3024 C   0  0  0  0  0  0  0  0  0  0  0  0
    1.9177   -2.0739    0.2313 C   0  0  0  0  0  0  0  0  0  0  0  0
    1.6691   -0.7517    0.7189 N   0  0  0  0  0  0  0  0  0  0  0  0
    0.4733   -0.1550    0.1999 C   0  0  0  0  0  0  0  0  0  0  0  0
   -0.7837   -0.3804    0.3894 N   0  0  0  0  0  0  0  0  0  0  0  0
   -1.6917    0.3346   -0.2025 C   0  0  0  0  0  0  0  0  0  0  0  0
   -3.1352    0.0991   -0.0313 C   0  0  0  0  0  0  0  0  0  0  0  0
   -4.0609    0.9258   -0.6574 C   0  0  0  0  0  0  0  0  0  0  0  0
   -5.4036    0.7423   -0.5446 C   0  0  0  0  0  0  0  0  0  0  0  0
   -5.8936   -0.2945    0.2139 C   0  0  0  0  0  0  0  0  0  0  0  0
   -7.2283   -0.5085    0.3436 F   0  0  0  0  0  0  0  0  0  0  0  0
   -4.9822   -1.1304    0.8474 C   0  0  0  0  0  0  0  0  0  0  0  0
   -3.6303   -0.9392    0.7282 C   0  0  0  0  0  0  0  0  0  0  0  0
   -1.2284    1.3374   -1.0364 C   0  0  0  0  0  0  0  0  0  0  0  0
    0.4726    1.1719   -0.9035 S   0  0  0  0  0  0  0  0  0  0  0  0
    2.3843    0.1101    1.6132 C   0  0  0  0  0  0  0  0  0  0  0  0
    3.3473    1.0241    0.9545 C   0  0  0  0  0  0  0  0  0  0  0  0
  1  2  1  0
  2  3  1  0
  4  2  1  1
  4  5  1  0
  5  6  1  0
  6  7  1  0
  7  8  1  0
  8  9  1  0
  9 10  2  0
 10 11  1  0
 11 12  1  0
 12 13  2  0
 13 14  1  0
 14 15  2  0
 15 16  1  0
 15 17  1  0
 17 18  2  0
 11 19  2  0
 19 20  1  0
  8 21  1  0
 21 22  1  0
 22  4  1  0
 20  9  1  0
 18 12  1  0
M  END
>  <zinc_id>  (1) 
ZINC000277296162

>  <smiles>  (1) 
CN(C)[C@H]1CCCN(c2nc(-c3ccc(F)cc3)cs2)CC1

$$$$
