
     RDKit          3D

 20 22  0  0  0  0  0  0  0  0999 V2000
    1.6706   -1.8828    0.0289 C   0  0  0  0  0  0  0  0  0  0  0  0
    3.0085   -1.0430    0.5241 C   0  0  1  0  0  0  0  0  0  0  0  0
    3.7441   -1.1483   -0.9566 C   0  0  0  0  0  0  0  0  0  0  0  0
    4.7444   -0.1661   -1.0010 N   0  0  0  0  0  0  0  0  0  0  0  0
    5.6560   -0.2625   -2.1096 C   0  0  0  0  0  0  0  0  0  0  0  0
    4.5172    1.1256   -0.5188 C   0  0  0  0  0  0  0  0  0  0  0  0
    3.4324    1.3641    0.4617 C   0  0  0  0  0  0  0  0  0  0  0  0
    2.4325    0.3654    0.2768 N   0  0  0  0  0  0  0  0  0  0  0  0
    1.1322    0.6472   -0.1085 C   0  0  0  0  0  0  0  0  0  0  0  0
   -0.0462    0.1769    0.2438 N   0  0  0  0  0  0  0  0  0  0  0  0
   -1.1398    0.6131   -0.3150 C   0  0  0  0  0  0  0  0  0  0  0  0
   -2.4753    0.1376    0.0546 C   0  0  0  0  0  0  0  0  0  0  0  0
   -3.6238    0.5901   -0.5652 C   0  0  0  0  0  0  0  0  0  0  0  0
   -4.8812    0.1427   -0.1950 C   0  0  0  0  0  0  0  0  0  0  0  0
   -5.0330   -0.7825    0.8182 C   0  0  0  0  0  0  0  0  0  0  0  0
   -6.2821   -1.2280    1.1922 F   0  0  0  0  0  0  0  0  0  0  0  0
   -3.8980   -1.2449    1.4483 C   0  0  0  0  0  0  0  0  0  0  0  0
   -2.6368   -0.7823    1.0612 C   0  0  0  0  0  0  0  0  0  0  0  0
   -1.0028    1.5794   -1.2813 C   0  0  0  0  0  0  0  0  0  0  0  0
    0.6811    1.7982   -1.3239 S   0  0  0  0  0  0  0  0  0  0  0  0
  2  1  1  6
  2  3  1  0
  3  4  1  0
  4  5  1  0
  4  6  1  0
  6  7  1  0
  7  8  1  0
  8  9  1  0
  9 10  2  0
 10 11  1  0
 11 12  1  0
 12 13  2  0
 13 14  1  0
 14 15  2  0
 15 16  1  0
 15 17  1  0
 17 18  2  0
 11 19  2  0
 19 20  1  0
  8  2  1  0
 20  9  1  0
 18 12  1  0
M  END
>  <zinc_id>  (1) 
ZINC000443438221

>  <smiles>  (1) 
C[C@H]1CN(C)CCN1c1nc(-c2ccc(F)cc2)cs1

$$$$
