
     RDKit          3D

 20 22  0  0  0  0  0  0  0  0999 V2000
   -3.3308   -1.6957   -0.9639 C   0  0  0  0  0  0  0  0  0  0  0  0
   -3.2157   -1.9524    0.6499 C   0  0  2  0  0  0  0  0  0  0  0  0
   -4.4390   -0.9281    1.0538 C   0  0  0  0  0  0  0  0  0  0  0  0
   -4.2120    0.3193    0.4175 N   0  0  0  0  0  0  0  0  0  0  0  0
   -5.4519    1.0333    0.4365 C   0  0  0  0  0  0  0  0  0  0  0  0
   -3.2313    1.1608    1.0736 C   0  0  0  0  0  0  0  0  0  0  0  0
   -2.2588    0.1985    1.7211 C   0  0  0  0  0  0  0  0  0  0  0  0
   -2.1005   -0.8953    0.8605 N   0  0  0  0  0  0  0  0  0  0  0  0
   -0.9067   -1.1100    0.1220 C   0  0  0  0  0  0  0  0  0  0  0  0
    0.1396   -0.3543    0.1505 N   0  0  0  0  0  0  0  0  0  0  0  0
    1.1940   -0.6208   -0.5568 C   0  0  0  0  0  0  0  0  0  0  0  0
    2.3826    0.2392   -0.5233 C   0  0  0  0  0  0  0  0  0  0  0  0
    2.4849    1.3790    0.2426 C   0  0  0  0  0  0  0  0  0  0  0  0
    3.6107    2.1751    0.2611 C   0  0  0  0  0  0  0  0  0  0  0  0
    4.7084    1.8609   -0.5015 C   0  0  0  0  0  0  0  0  0  0  0  0
    5.8419    2.6416   -0.4978 F   0  0  0  0  0  0  0  0  0  0  0  0
    4.6251    0.7264   -1.2730 C   0  0  0  0  0  0  0  0  0  0  0  0
    3.4849   -0.0716   -1.2858 C   0  0  0  0  0  0  0  0  0  0  0  0
    1.1248   -1.7635   -1.3410 C   0  0  0  0  0  0  0  0  0  0  0  0
   -0.4502   -2.3424   -0.9840 S   0  0  0  0  0  0  0  0  0  0  0  0
  2  1  1  6
  2  3  1  0
  3  4  1  0
  4  5  1  0
  4  6  1  0
  6  7  1  0
  7  8  1  0
  8  9  1  0
  9 10  2  0
 10 11  1  0
 11 12  1  0
 12 13  2  0
 13 14  1  0
 14 15  2  0
 15 16  1  0
 15 17  1  0
 17 18  2  0
 11 19  2  0
 19 20  1  0
  8  2  1  0
 20  9  1  0
 18 12  1  0
M  END
>  <zinc_id>  (1) 
ZINC000443438219

>  <smiles>  (1) 
C[C@@H]1CN(C)CCN1c1nc(-c2ccc(F)cc2)cs1

$$$$
