
     RDKit          3D

 23 25  0  0  0  0  0  0  0  0999 V2000
    6.3058   -0.4963    1.2266 C   0  0  0  0  0  0  0  0  0  0  0  0
    5.0671   -0.2637    0.5619 O   0  0  0  0  0  0  0  0  0  0  0  0
    5.1105   -0.0457   -0.7600 C   0  0  0  0  0  0  0  0  0  0  0  0
    6.1384   -0.0251   -1.4863 O   0  0  0  0  0  0  0  0  0  0  0  0
    3.8076    0.2287   -1.6315 C   0  0  1  0  0  0  0  0  0  0  0  0
    3.1070   -1.1970   -1.3636 C   0  0  0  0  0  0  0  0  0  0  0  0
    2.4680   -1.1504   -0.0742 C   0  0  0  0  0  0  0  0  0  0  0  0
    2.7079    0.0960    0.4766 N   0  0  0  0  0  0  0  0  0  0  0  0
    1.7857    0.5688    1.4594 C   0  0  0  0  0  0  0  0  0  0  0  0
    0.3765    0.8652    0.6808 C   0  0  2  0  0  0  0  0  0  0  0  0
   -0.3211    1.3365    1.9641 O   0  0  0  0  0  0  0  0  0  0  0  0
   -0.1765   -0.6928    0.8981 C   0  0  0  0  0  0  0  0  0  0  0  0
   -1.5108   -0.6349    0.2482 C   0  0  0  0  0  0  0  0  0  0  0  0
   -1.6747   -0.9286   -1.0812 C   0  0  0  0  0  0  0  0  0  0  0  0
   -2.9511   -0.8499   -1.6269 C   0  0  0  0  0  0  0  0  0  0  0  0
   -4.0154   -0.4798   -0.8222 C   0  0  0  0  0  0  0  0  0  0  0  0
   -5.2889   -0.3951   -1.3381 C   0  0  0  0  0  0  0  0  0  0  0  0
   -6.3576   -0.0258   -0.5382 C   0  0  0  0  0  0  0  0  0  0  0  0
   -6.1878    0.2730    0.8124 C   0  0  0  0  0  0  0  0  0  0  0  0
   -4.9216    0.1903    1.3268 C   0  0  0  0  0  0  0  0  0  0  0  0
   -3.8694   -0.1785    0.5207 C   0  0  0  0  0  0  0  0  0  0  0  0
   -2.6001   -0.2640    1.0361 C   0  0  0  0  0  0  0  0  0  0  0  0
    3.0006    1.0673   -0.4897 C   0  0  0  0  0  0  0  0  0  0  0  0
  1  2  1  0
  2  3  1  0
  3  4  2  0
  5  3  1  1
  5  6  1  0
  6  7  1  0
  7  8  1  0
  8  9  1  0
  9 10  1  0
 10 11  1  1
 10 12  1  0
 12 13  1  0
 13 14  2  0
 14 15  1  0
 15 16  2  0
 16 17  1  0
 17 18  2  0
 18 19  1  0
 19 20  2  0
 20 21  1  0
 21 22  2  0
  8 23  1  0
 23  5  1  0
 22 13  1  0
 21 16  1  0
M  END
>  <zinc_id>  (1) 
ZINC000279319971

>  <smiles>  (1) 
COC(=O)[C@H]1CCN(C[C@H](O)Cc2ccc3ccccc3c2)C1

$$$$
