
     RDKit          3D

 25 27  0  0  0  0  0  0  0  0999 V2000
   -6.8089    0.1281   -0.0936 C   0  0  0  0  0  0  0  0  0  0  0  0
   -5.4136   -0.4331   -0.2503 C   0  0  2  0  0  0  0  0  0  0  0  0
   -5.3217   -1.2722   -1.3052 O   0  0  0  0  0  0  0  0  0  0  0  0
   -4.7373   -0.7667    0.9651 C   0  0  0  0  0  0  0  0  0  0  0  0
   -3.3785   -1.5981    0.7746 C   0  0  2  0  0  0  0  0  0  0  0  0
   -2.9911   -1.6039    2.2086 O   0  0  0  0  0  0  0  0  0  0  0  0
   -2.3840   -0.5060    0.2104 C   0  0  0  0  0  0  0  0  0  0  0  0
   -1.1060   -0.6675    0.3807 N   0  0  0  0  0  0  0  0  0  0  0  0
   -0.3461   -1.7728   -0.4247 C   0  0  1  0  0  0  0  0  0  0  0  0
    0.4733   -0.7092   -1.4419 C   0  0  0  0  0  0  0  0  0  0  0  0
    0.6543   -0.0936    0.0581 C   0  0  2  0  0  0  0  0  0  0  0  0
    2.1343    0.4212    0.0050 C   0  0  0  0  0  0  0  0  0  0  0  0
    2.0144    1.7893    0.0830 C   0  0  0  0  0  0  0  0  0  0  0  0
    3.1141    2.5695    0.1336 C   0  0  0  0  0  0  0  0  0  0  0  0
    4.3230    1.9478    0.0976 C   0  0  0  0  0  0  0  0  0  0  0  0
    4.4245    0.5625    0.0145 C   0  0  0  0  0  0  0  0  0  0  0  0
    5.7427   -0.0100   -0.0495 C   0  0  0  0  0  0  0  0  0  0  0  0
    6.7278    0.9301   -0.2627 F   0  0  0  0  0  0  0  0  0  0  0  0
    6.0393   -0.5025    1.2424 F   0  0  0  0  0  0  0  0  0  0  0  0
    5.9662   -1.0025   -0.9616 F   0  0  0  0  0  0  0  0  0  0  0  0
    3.2635   -0.2237   -0.0296 C   0  0  0  0  0  0  0  0  0  0  0  0
    1.0283   -1.6783    0.4973 C   0  0  0  0  0  0  0  0  0  0  0  0
   -4.7581    0.9659   -0.7691 C   0  0  0  0  0  0  0  0  0  0  0  0
   -5.0432    2.0278    0.2873 C   0  0  0  0  0  0  0  0  0  0  0  0
   -3.6171    1.4978    0.0595 C   0  0  0  0  0  0  0  0  0  0  0  0
  2  1  1  1
  2  3  1  0
  2  4  1  0
  4  5  1  0
  5  6  1  1
  5  7  1  0
  7  8  1  0
  9  8  1  1
  9 10  1  0
 10 11  1  0
 11 12  1  6
 12 13  2  0
 13 14  1  0
 14 15  2  0
 15 16  1  0
 16 17  1  0
 17 18  1  0
 17 19  1  0
 17 20  1  0
 16 21  2  0
 11 22  1  0
  2 23  1  0
 23 24  1  0
 24 25  1  0
 22  9  1  0
 25 23  1  0
 21 12  1  0
M  END
>  <zinc_id>  (1) 
ZINC000634713432

>  <smiles>  (1) 
C[C@](O)(C[C@H](O)CN[C@@H]1C[C@@H](c2cccc(C(F)(F)F)c2)C1)C1CC1

$$$$
