
     RDKit          3D

 22 25  0  0  0  0  0  0  0  0999 V2000
    0.1841   -2.6851    0.5579 O   0  0  0  0  0  0  0  0  0  0  0  0
    0.0728   -1.5254    1.5473 C   0  0  2  0  0  0  0  0  0  0  0  0
   -1.1053   -0.7415    0.6994 C   0  0  0  0  0  0  0  0  0  0  0  0
   -2.2085   -1.6163    0.6251 N   0  0  0  0  0  0  0  0  0  0  0  0
   -1.9141   -2.7493   -0.2131 C   0  0  0  0  0  0  0  0  0  0  0  0
   -2.1561   -2.3545   -1.6477 C   0  0  0  0  0  0  0  0  0  0  0  0
   -2.1270   -0.8254   -1.5017 C   0  0  0  0  0  0  0  0  0  0  0  0
   -3.2039   -0.8788   -0.3070 C   0  0  2  0  0  0  0  0  0  0  0  0
   -3.0507    0.6737    0.3580 C   0  0  1  0  0  0  0  0  0  0  0  0
   -1.7701    1.1951   -0.4925 C   0  0  0  0  0  0  0  0  0  0  0  0
   -2.1553    2.6408   -0.4611 C   0  0  0  0  0  0  0  0  0  0  0  0
   -3.6239    2.5600   -0.7207 C   0  0  0  0  0  0  0  0  0  0  0  0
   -4.0404    1.2715   -0.6158 O   0  0  0  0  0  0  0  0  0  0  0  0
    1.2652   -0.6781    0.9007 C   0  0  0  0  0  0  0  0  0  0  0  0
    2.2476   -0.0774    1.6338 C   0  0  0  0  0  0  0  0  0  0  0  0
    3.0835    0.5525    0.6981 C   0  0  0  0  0  0  0  0  0  0  0  0
    4.2324    1.3092    0.8300 C   0  0  0  0  0  0  0  0  0  0  0  0
    4.8349    1.7967   -0.2832 C   0  0  0  0  0  0  0  0  0  0  0  0
    4.2844    1.5241   -1.5250 C   0  0  0  0  0  0  0  0  0  0  0  0
    3.1582    0.7825   -1.6608 C   0  0  0  0  0  0  0  0  0  0  0  0
    2.5348    0.2807   -0.5406 C   0  0  0  0  0  0  0  0  0  0  0  0
    1.4576   -0.4549   -0.3360 O   0  0  0  0  0  0  0  0  0  0  0  0
  2  1  1  6
  2  3  1  0
  3  4  1  0
  4  5  1  0
  5  6  1  0
  6  7  1  0
  8  7  1  6
  8  9  1  0
  9 10  1  6
 10 11  1  0
 11 12  1  0
 12 13  1  0
  2 14  1  0
 14 15  2  0
 15 16  1  0
 16 17  2  0
 17 18  1  0
 18 19  2  0
 19 20  1  0
 20 21  2  0
 21 22  1  0
  8  4  1  0
 13  9  1  0
 22 14  1  0
 21 16  1  0
M  END
>  <zinc_id>  (1) 
ZINC000294308141

>  <smiles>  (1) 
O[C@H](CN1CCC[C@@H]1[C@H]1CCCO1)c1cc2ccccc2o1

$$$$
