
     RDKit          3D

 24 27  0  0  0  0  0  0  0  0999 V2000
    2.4999    1.9136   -0.2273 O   0  0  0  0  0  0  0  0  0  0  0  0
    2.7722    0.5819    0.0458 C   0  0  2  0  0  0  0  0  0  0  0  0
    2.4787   -0.3210   -1.1214 C   0  0  0  0  0  0  0  0  0  0  0  0
    1.0670   -0.2544   -1.5063 N   0  0  0  0  0  0  0  0  0  0  0  0
    0.3007   -0.8562   -0.4468 C   0  0  0  0  0  0  0  0  0  0  0  0
   -1.1601   -0.8592   -0.6909 C   0  0  0  0  0  0  0  0  0  0  0  0
   -1.8133   -1.7911   -1.4697 C   0  0  0  0  0  0  0  0  0  0  0  0
   -3.1242   -1.4848   -1.4591 N   0  0  0  0  0  0  0  0  0  0  0  0
   -3.3345   -0.4031   -0.7107 N   0  0  0  0  0  0  0  0  0  0  0  0
   -4.6376    0.1606   -0.5105 C   0  0  0  0  0  0  0  0  0  0  0  0
   -5.7294   -0.1942   -1.2390 C   0  0  0  0  0  0  0  0  0  0  0  0
   -6.9534    0.4211   -0.9569 C   0  0  0  0  0  0  0  0  0  0  0  0
   -7.0837    1.3726    0.0339 C   0  0  0  0  0  0  0  0  0  0  0  0
   -5.9660    1.7338    0.7773 C   0  0  0  0  0  0  0  0  0  0  0  0
   -4.7790    1.1149    0.4797 C   0  0  0  0  0  0  0  0  0  0  0  0
   -2.1594   -0.0223   -0.2467 C   0  0  0  0  0  0  0  0  0  0  0  0
    2.0251    0.1681    1.2901 C   0  0  0  0  0  0  0  0  0  0  0  0
    2.9605   -0.7127    2.0779 C   0  0  0  0  0  0  0  0  0  0  0  0
    4.3051   -0.3119    1.5783 C   0  0  0  0  0  0  0  0  0  0  0  0
    5.5325   -0.5941    2.1307 C   0  0  0  0  0  0  0  0  0  0  0  0
    6.7019   -0.1419    1.5352 C   0  0  0  0  0  0  0  0  0  0  0  0
    6.5637    0.5926    0.3800 C   0  0  0  0  0  0  0  0  0  0  0  0
    5.3508    0.8739   -0.1696 C   0  0  0  0  0  0  0  0  0  0  0  0
    4.1826    0.4217    0.4259 C   0  0  0  0  0  0  0  0  0  0  0  0
  2  1  1  6
  2  3  1  0
  3  4  1  0
  4  5  1  0
  5  6  1  0
  6  7  1  0
  7  8  2  0
  8  9  1  0
  9 10  1  0
 10 11  2  0
 11 12  1  0
 12 13  2  0
 13 14  1  0
 14 15  2  0
  9 16  1  0
  2 17  1  0
 17 18  1  0
 18 19  1  0
 19 20  2  0
 20 21  1  0
 21 22  2  0
 22 23  1  0
 23 24  2  0
 24  2  1  0
 16  6  2  0
 24 19  1  0
 15 10  1  0
M  END
>  <zinc_id>  (1) 
ZINC000269761690

>  <smiles>  (1) 
O[C@]1(CNCc2cnn(-c3ccccc3)c2)CCc2ccccc21

$$$$
