
     RDKit          3D

 19 20  0  0  0  0  0  0  0  0999 V2000
   -1.1902   -2.8150    1.2973 C   0  0  0  0  0  0  0  0  0  0  0  0
   -1.4674   -1.9017   -0.0609 C   0  0  1  0  0  0  0  0  0  0  0  0
   -2.8328   -1.2104    0.5816 C   0  0  0  0  0  0  0  0  0  0  0  0
   -3.1578   -0.3110   -0.4793 N   0  0  0  0  0  0  0  0  0  0  0  0
   -4.4556    0.3094   -0.3380 C   0  0  0  0  0  0  0  0  0  0  0  0
   -4.4575    1.2691    0.8480 C   0  0  0  0  0  0  0  0  0  0  0  0
   -5.7347    1.8300    0.9233 O   0  0  0  0  0  0  0  0  0  0  0  0
   -2.1498    0.5838   -0.8872 C   0  0  0  0  0  0  0  0  0  0  0  0
   -0.7753    0.3505   -0.4667 C   0  0  0  0  0  0  0  0  0  0  0  0
   -0.5377   -0.7000    0.4801 N   0  0  0  0  0  0  0  0  0  0  0  0
    0.8030   -1.2711    0.2339 C   0  0  0  0  0  0  0  0  0  0  0  0
    1.7909   -0.1593    0.3803 C   0  0  0  0  0  0  0  0  0  0  0  0
    1.3883    1.1286    0.6857 C   0  0  0  0  0  0  0  0  0  0  0  0
    2.2824    2.1460    0.8155 C   0  0  0  0  0  0  0  0  0  0  0  0
    3.6143    1.9563    0.6536 C   0  0  0  0  0  0  0  0  0  0  0  0
    4.0604    0.6722    0.3449 C   0  0  0  0  0  0  0  0  0  0  0  0
    5.9225    0.4313    0.1195 Br  0  0  0  0  0  0  0  0  0  0  0  0
    3.1444   -0.3522    0.2156 C   0  0  0  0  0  0  0  0  0  0  0  0
    3.7528   -1.9563   -0.1749 Cl  0  0  0  0  0  0  0  0  0  0  0  0
  2  1  1  1
  2  3  1  0
  3  4  1  0
  4  5  1  0
  5  6  1  0
  6  7  1  0
  4  8  1  0
  8  9  1  0
  9 10  1  0
 10 11  1  0
 11 12  1  0
 12 13  2  0
 13 14  1  0
 14 15  2  0
 15 16  1  0
 16 17  1  0
 16 18  2  0
 18 19  1  0
 10  2  1  0
 18 12  1  0
M  END
>  <zinc_id>  (1) 
ZINC000411862305

>  <smiles>  (1) 
C[C@H]1CN(CCO)CCN1Cc1cccc(Br)c1Cl

$$$$
