
     RDKit          3D

 18 20  0  0  0  0  0  0  0  0999 V2000
   -6.2450    1.8525   -1.6324 I   0  0  0  0  0  0  0  0  0  0  0  0
   -4.4233    1.1397   -0.8361 C   0  0  0  0  0  0  0  0  0  0  0  0
   -4.3256    0.6863    0.4562 C   0  0  0  0  0  0  0  0  0  0  0  0
   -3.1230    0.2316    0.9339 C   0  0  0  0  0  0  0  0  0  0  0  0
   -1.9684    0.1968    0.1836 C   0  0  0  0  0  0  0  0  0  0  0  0
   -0.6955   -0.3024    0.7436 C   0  0  0  0  0  0  0  0  0  0  0  0
   -0.6333   -0.7493    2.0422 C   0  0  0  0  0  0  0  0  0  0  0  0
    1.0293   -1.2014    2.1720 S   0  0  0  0  0  0  0  0  0  0  0  0
    1.4941   -0.7857    0.5766 C   0  0  0  0  0  0  0  0  0  0  0  0
    2.7818   -0.8911   -0.0596 N   0  0  0  0  0  0  0  0  0  0  0  0
    3.8871   -1.4153    0.6994 C   0  0  0  0  0  0  0  0  0  0  0  0
    5.0010   -0.3928    0.6952 C   0  0  0  0  0  0  0  0  0  0  0  0
    4.8477    0.6102   -0.3137 N   0  0  0  0  0  0  0  0  0  0  0  0
    4.3605    0.0814   -1.5790 C   0  0  0  0  0  0  0  0  0  0  0  0
    2.9545   -0.4859   -1.4068 C   0  0  0  0  0  0  0  0  0  0  0  0
    0.3992   -0.3433    0.0562 N   0  0  0  0  0  0  0  0  0  0  0  0
   -2.0655    0.6561   -1.1268 C   0  0  0  0  0  0  0  0  0  0  0  0
   -3.2755    1.1125   -1.6044 C   0  0  0  0  0  0  0  0  0  0  0  0
  1  2  1  0
  2  3  2  0
  3  4  1  0
  4  5  2  0
  5  6  1  0
  6  7  2  0
  7  8  1  0
  8  9  1  0
  9 10  1  0
 10 11  1  0
 11 12  1  0
 12 13  1  0
 13 14  1  0
 14 15  1  0
  9 16  2  0
  5 17  1  0
 17 18  2  0
 18  2  1  0
 16  6  1  0
 15 10  1  0
M  END
>  <zinc_id>  (1) 
ZINC000236204386

>  <smiles>  (1) 
Ic1ccc(-c2csc(N3CCNCC3)n2)cc1

$$$$
