
     RDKit          3D

 22 25  0  0  0  0  0  0  0  0999 V2000
   -0.9798    1.3962   -1.0803 O   0  0  0  0  0  0  0  0  0  0  0  0
   -1.1225    2.1959    0.1811 C   0  0  2  0  0  0  0  0  0  0  0  0
    0.4231    2.6672    0.3010 C   0  0  0  0  0  0  0  0  0  0  0  0
    1.3445    1.5197    0.4038 C   0  0  0  0  0  0  0  0  0  0  0  0
    1.7168    0.9517    1.6024 C   0  0  0  0  0  0  0  0  0  0  0  0
    2.5834   -0.1202    1.6858 C   0  0  0  0  0  0  0  0  0  0  0  0
    3.1474   -0.7095    0.5741 C   0  0  0  0  0  0  0  0  0  0  0  0
    4.0155   -1.7807    0.6445 C   0  0  0  0  0  0  0  0  0  0  0  0
    4.5748   -2.3627   -0.4716 C   0  0  0  0  0  0  0  0  0  0  0  0
    4.2140   -1.8077   -1.6786 C   0  0  0  0  0  0  0  0  0  0  0  0
    3.3465   -0.7370   -1.7534 C   0  0  0  0  0  0  0  0  0  0  0  0
    2.7837   -0.1511   -0.6340 C   0  0  0  0  0  0  0  0  0  0  0  0
    1.9128    0.9245   -0.7031 C   0  0  0  0  0  0  0  0  0  0  0  0
   -0.9189    0.9324    1.1816 C   0  0  0  0  0  0  0  0  0  0  0  0
   -1.9526    0.0503    0.9004 N   0  0  0  0  0  0  0  0  0  0  0  0
   -3.2875    0.3930    1.1969 C   0  0  0  0  0  0  0  0  0  0  0  0
   -3.7900    0.7658   -0.3379 C   0  0  2  0  0  0  0  0  0  0  0  0
   -5.2001    0.2973   -0.0941 O   0  0  0  0  0  0  0  0  0  0  0  0
   -3.2269   -0.6583   -0.8699 C   0  0  0  0  0  0  0  0  0  0  0  0
   -3.8898   -1.8963   -0.5197 C   0  0  0  0  0  0  0  0  0  0  0  0
   -3.8583   -1.3502   -1.8853 C   0  0  0  0  0  0  0  0  0  0  0  0
   -1.8361   -0.5203   -0.4047 C   0  0  0  0  0  0  0  0  0  0  0  0
  2  1  1  6
  2  3  1  0
  3  4  1  0
  4  5  2  0
  5  6  1  0
  6  7  2  0
  7  8  1  0
  8  9  2  0
  9 10  1  0
 10 11  2  0
 11 12  1  0
 12 13  2  0
  2 14  1  0
 14 15  1  0
 15 16  1  0
 16 17  1  0
 17 18  1  1
 17 19  1  0
 19 20  1  0
 20 21  1  0
 19 22  1  0
 13  4  1  0
 22 15  1  0
 12  7  1  0
 21 19  1  0
M  END
>  <zinc_id>  (1) 
ZINC000348114651

>  <smiles>  (1) 
O[C@H](Cc1ccc2ccccc2c1)CN1C[C@H](O)C2(CC2)C1

$$$$
