
     RDKit          3D

 25 27  0  0  0  0  0  0  0  0999 V2000
    2.9067    2.2802   -1.6971 C   0  0  0  0  0  0  0  0  0  0  0  0
    1.9732    2.0499   -0.6434 N   0  0  0  0  0  0  0  0  0  0  0  0
    2.6307    1.9531    0.6440 C   0  0  0  0  0  0  0  0  0  0  0  0
    3.6097    0.8473    0.6517 C   0  0  0  0  0  0  0  0  0  0  0  0
    4.9054    1.1949    0.2485 C   0  0  0  0  0  0  0  0  0  0  0  0
    5.9009    0.2671    0.2108 C   0  0  0  0  0  0  0  0  0  0  0  0
    5.6188   -1.0465    0.5802 C   0  0  0  0  0  0  0  0  0  0  0  0
    4.3513   -1.4092    0.9797 C   0  0  0  0  0  0  0  0  0  0  0  0
    3.3431   -0.4447    1.0125 C   0  0  0  0  0  0  0  0  0  0  0  0
    1.1615    0.9118   -0.8179 C   0  0  0  0  0  0  0  0  0  0  0  0
    0.1968    1.3106   -2.0742 C   0  0  1  0  0  0  0  0  0  0  0  0
    1.3291    1.4920   -3.0498 O   0  0  0  0  0  0  0  0  0  0  0  0
   -0.0548   -0.2579   -2.4885 C   0  0  0  0  0  0  0  0  0  0  0  0
   -1.0140   -0.6645   -1.7650 O   0  0  0  0  0  0  0  0  0  0  0  0
   -1.9876   -1.1858   -1.0763 C   0  0  0  0  0  0  0  0  0  0  0  0
   -2.4931   -2.4899   -1.1567 C   0  0  0  0  0  0  0  0  0  0  0  0
   -3.5345   -2.9278   -0.3695 C   0  0  0  0  0  0  0  0  0  0  0  0
   -4.1349   -2.0905    0.5460 C   0  0  0  0  0  0  0  0  0  0  0  0
   -5.4536   -2.6611    1.5350 Cl  0  0  0  0  0  0  0  0  0  0  0  0
   -3.6689   -0.7935    0.6605 C   0  0  0  0  0  0  0  0  0  0  0  0
   -4.2816    0.0350    1.5865 C   0  0  0  0  0  0  0  0  0  0  0  0
   -3.7650    1.3345    1.6578 C   0  0  0  0  0  0  0  0  0  0  0  0
   -2.7368    1.7634    0.8789 C   0  0  0  0  0  0  0  0  0  0  0  0
   -2.1829    0.9118   -0.0023 N   0  0  0  0  0  0  0  0  0  0  0  0
   -2.6197   -0.3800   -0.1444 C   0  0  0  0  0  0  0  0  0  0  0  0
  1  2  1  0
  2  3  1  0
  3  4  1  0
  4  5  2  0
  5  6  1  0
  6  7  2  0
  7  8  1  0
  8  9  2  0
  2 10  1  0
 10 11  1  0
 11 12  1  6
 11 13  1  0
 13 14  1  0
 14 15  1  0
 15 16  2  0
 16 17  1  0
 17 18  2  0
 18 19  1  0
 18 20  1  0
 20 21  2  0
 21 22  1  0
 22 23  2  0
 23 24  1  0
 24 25  2  0
  9  4  1  0
 25 15  1  0
 25 20  1  0
M  END
>  <zinc_id>  (1) 
ZINC000677296032

>  <smiles>  (1) 
CN(Cc1ccccc1)C[C@@H](O)COc1ccc(Cl)c2cccnc12

$$$$
