
     RDKit          3D

 25 28  0  0  0  0  0  0  0  0999 V2000
    5.0298   -0.6112   -1.8981 C   0  0  0  0  0  0  0  0  0  0  0  0
    3.9777    0.3028   -1.0947 C   0  0  1  0  0  0  0  0  0  0  0  0
    3.0589   -0.9521   -0.5943 C   0  0  0  0  0  0  0  0  0  0  0  0
    2.2533   -0.3410    0.3428 N   0  0  0  0  0  0  0  0  0  0  0  0
    0.8705   -0.0415    0.0930 C   0  0  0  0  0  0  0  0  0  0  0  0
   -0.2130   -0.7346    0.3410 N   0  0  0  0  0  0  0  0  0  0  0  0
   -1.3770   -0.2868    0.0569 N   0  0  0  0  0  0  0  0  0  0  0  0
   -2.6714   -0.7149    0.1742 C   0  0  0  0  0  0  0  0  0  0  0  0
   -3.5140    0.2347   -0.3152 C   0  0  0  0  0  0  0  0  0  0  0  0
   -4.9650    0.1746   -0.3594 C   0  0  0  0  0  0  0  0  0  0  0  0
   -5.6491    1.2590   -0.8474 C   0  0  0  0  0  0  0  0  0  0  0  0
   -7.0357    1.2800   -0.9180 C   0  0  0  0  0  0  0  0  0  0  0  0
   -7.7107    0.1597   -0.4748 C   0  0  0  0  0  0  0  0  0  0  0  0
   -7.0515   -0.9041    0.0044 N   0  0  0  0  0  0  0  0  0  0  0  0
   -5.6834   -0.9109    0.0683 C   0  0  0  0  0  0  0  0  0  0  0  0
   -2.7563    1.2541   -0.7405 N   0  0  0  0  0  0  0  0  0  0  0  0
   -1.4722    0.9147   -0.5038 C   0  0  0  0  0  0  0  0  0  0  0  0
    0.1685    1.3758   -0.6096 S   0  0  0  0  0  0  0  0  0  0  0  0
    2.7594    0.0887    1.7571 C   0  0  1  0  0  0  0  0  0  0  0  0
    3.7449   -1.1877    1.9710 C   0  0  0  0  0  0  0  0  0  0  0  0
    3.9240    1.0614    1.1793 C   0  0  0  0  0  0  0  0  0  0  0  0
    4.7453    0.4034    0.2499 N   0  0  0  0  0  0  0  0  0  0  0  0
    5.5665   -0.5887    0.6123 C   0  0  0  0  0  0  0  0  0  0  0  0
    6.5570   -1.1368   -0.3542 C   0  0  0  0  0  0  0  0  0  0  0  0
    7.4435   -0.0986   -0.7456 O   0  0  0  0  0  0  0  0  0  0  0  0
  2  1  1  6
  2  3  1  0
  3  4  1  0
  4  5  1  0
  5  6  2  0
  6  7  1  0
  7  8  1  0
  8  9  2  0
  9 10  1  0
 10 11  2  0
 11 12  1  0
 12 13  2  0
 13 14  1  0
 14 15  2  0
  9 16  1  0
 16 17  2  0
 17 18  1  0
  4 19  1  0
 19 20  1  1
 19 21  1  0
 21 22  1  0
 22 23  1  0
 23 24  1  0
 24 25  1  0
 22  2  1  0
 18  5  1  0
 17  7  1  0
 15 10  1  0
M  END
>  <zinc_id>  (1) 
ZINC000580533739

>  <smiles>  (1) 
C[C@H]1CN(c2nn3cc(-c4cccnc4)nc3s2)[C@@H](C)CN1CCO

$$$$
