
     RDKit          3D

 20 22  0  0  0  0  0  0  0  0999 V2000
   -7.0240    0.5789    1.0853 N   0  0  0  0  0  0  0  0  0  0  0  0
   -6.4492   -0.0272   -0.0695 C   0  0  0  0  0  0  0  0  0  0  0  0
   -5.4036   -1.0427    0.1866 C   0  0  0  0  0  0  0  0  0  0  0  0
   -4.1846   -0.2986    1.0104 C   0  0  2  0  0  0  0  0  0  0  0  0
   -3.8807    0.7908   -0.1619 C   0  0  0  0  0  0  0  0  0  0  0  0
   -2.3809    0.9460    0.0807 C   0  0  0  0  0  0  0  0  0  0  0  0
   -1.9618   -0.4029    0.2281 N   0  0  0  0  0  0  0  0  0  0  0  0
   -0.5841   -0.8494    0.2228 C   0  0  0  0  0  0  0  0  0  0  0  0
    0.5083   -0.1178    0.0852 N   0  0  0  0  0  0  0  0  0  0  0  0
    1.6691   -0.6909    0.1049 C   0  0  0  0  0  0  0  0  0  0  0  0
    2.9558    0.0473   -0.0421 C   0  0  0  0  0  0  0  0  0  0  0  0
    4.1579   -0.5708   -0.0186 C   0  0  0  0  0  0  0  0  0  0  0  0
    5.3183    0.1360   -0.1562 C   0  0  0  0  0  0  0  0  0  0  0  0
    5.2509    1.5141   -0.3226 C   0  0  0  0  0  0  0  0  0  0  0  0
    6.3756    2.2311   -0.4599 F   0  0  0  0  0  0  0  0  0  0  0  0
    4.0472    2.1739   -0.3512 C   0  0  0  0  0  0  0  0  0  0  0  0
    2.9109    1.3890   -0.2050 C   0  0  0  0  0  0  0  0  0  0  0  0
    1.6932   -2.0564    0.2716 C   0  0  0  0  0  0  0  0  0  0  0  0
    0.0333   -2.4266    0.3897 S   0  0  0  0  0  0  0  0  0  0  0  0
   -3.0518   -1.3239    0.3889 C   0  0  0  0  0  0  0  0  0  0  0  0
  1  2  1  0
  2  3  1  0
  4  3  1  6
  4  5  1  0
  5  6  1  0
  6  7  1  0
  7  8  1  0
  8  9  2  0
  9 10  1  0
 10 11  1  0
 11 12  2  0
 12 13  1  0
 13 14  2  0
 14 15  1  0
 14 16  1  0
 16 17  2  0
 10 18  2  0
 18 19  1  0
  7 20  1  0
 20  4  1  0
 19  8  1  0
 17 11  1  0
M  END
>  <zinc_id>  (1) 
ZINC000900380018

>  <smiles>  (1) 
NCC[C@@H]1CCN(c2nc(-c3ccc(F)cc3)cs2)C1

$$$$
