
##########                                Name:        KAW_800_3BKL
##########                    Molecular_Weight:             528.585
##########                DOCK_Rotatable_Bonds:                  16
##########                       Formal_Charge:             -0.9998
##########                     HBond_Acceptors:                   9
##########                        HBond_Donors:                   5
##########                         Heavy_Atoms:                  39
##########                            HA_RMSDs:               5.295
##########                            HA_RMSDh:               4.288
##########                            HA_RMSDm:               3.764
##########                          Grid_Score:          -59.641129
##########                     Grid_vdw_energy:          -59.641129
##########                      Grid_es_energy:            0.000000
##########           Internal_energy_repulsive:           29.901423

@<TRIPOS>MOLECULE
KAW_800_3BKL
 69 72 1 0 0
SMALL
USER_CHARGES


@<TRIPOS>ATOM
      1 C1         44.3966   39.2010   50.7888 C.ar    1  <0>        -0.0617
      2 C2         46.1842   43.8901   55.7992 C.ar    1  <0>        -0.0617
      3 C3         44.9732   39.3284   49.5387 C.ar    1  <0>        -0.0615
      4 C4         43.8698   40.3158   51.4148 C.ar    1  <0>        -0.0615
      5 C5         47.2691   43.2011   55.2898 C.ar    1  <0>        -0.0610
      6 C6         45.2952   44.5106   54.9416 C.ar    1  <0>        -0.0610
      7 C7         45.9733   52.9092   44.6504 C.ar    1  <0>        -0.0611
      8 C8         46.8698   53.3022   43.6489 C.ar    1  <0>        -0.0600
      9 C9         45.0216   40.5647   48.9216 C.ar    1  <0>        -0.0585
     10 C10        43.9220   41.5478   50.7905 C.ar    1  <0>        -0.0585
     11 C11        47.4695   43.1320   53.9237 C.ar    1  <0>        -0.0496
     12 C12        45.4910   44.4421   53.5748 C.ar    1  <0>        -0.0496
     13 C13        45.1749   51.7907   44.4971 C.ar    1  <0>        -0.0525
     14 C14        46.9956   52.6015   42.4798 C.ar    1  <0>        -0.0400
     15 C15        45.1617   49.6320   41.5846 C.2     1  <0>        -0.0024
     16 C16        46.2719   46.6466   46.7036 C.3     1  <0>         0.0289
     17 C17        46.3724   45.2594   47.3661 C.3     1  <0>         0.0111
     18 C18        44.5669   43.0345   48.8721 C.3     1  <0>        -0.0042
     19 C19        43.5506   49.0990   43.5093 C.3     1  <0>        -0.0021
     20 C20        44.4959   41.6886   49.5382 C.ar    1  <0>        -0.0454
     21 C21        46.5793   43.7554   53.0660 C.ar    1  <0>         0.0367
     22 C22        45.2800   51.0515   43.3141 C.ar    1  <0>         0.0005
     23 C23        46.1911   51.4726   42.3240 C.ar    1  <0>         0.0385
     24 C24        44.6293   49.8755   42.8177 C.2     1  <0>        -0.0226
     25 C25        43.9453   47.6669   43.8725 C.3     1  <0>         0.0666
     26 C26        45.7470   43.8712   49.3707 C.3     1  <0>         0.0808
     27 C27        45.1844   46.5756   45.6366 C.2     1  <0>         0.2137
     28 C28        46.7969   43.7020   51.5533 C.2     1  <0>         0.2445
     29 C29        44.4440   46.9224   42.6327 C.2     1  <0>         0.0623
     30 C30        45.7544   45.2777   48.7666 C.3     1  <0>         0.1840
     31 N1         46.1005   50.5896   41.2815 N.pl3   1  <0>        -0.3198
     32 N2         44.9652   47.6691   44.9146 N.am    1  <0>        -0.3070
     33 N3         45.7033   43.9034   50.8273 N.am    1  <0>        -0.3030
     34 O1         44.4281   45.8123   48.7277 O.3     1  <0>        -0.3632
     35 O2         46.5619   46.1131   49.5987 O.3     1  <0>        -0.3632
     36 O3         45.6674   46.6806   42.5491 O.co2   1  <0>        -0.5479
     37 O4         44.5574   45.5319   45.4574 O.2     1  <0>        -0.2758
     38 O5         47.9135   43.5344   51.0631 O.2     1  <0>        -0.2702
     39 O6         43.6078   46.5923   41.7661 O.co2   1  <0>        -0.5479
     40 H1         44.3578   38.2367   51.2735 H       1  <0>         0.0618
     41 H2         46.0313   43.9436   56.8669 H       1  <0>         0.0618
     42 H3         45.3861   38.4617   49.0440 H       1  <0>         0.0618
     43 H4         43.4176   40.2238   52.3913 H       1  <0>         0.0618
     44 H5         47.9621   42.7156   55.9610 H       1  <0>         0.0618
     45 H6         44.4475   45.0489   55.3394 H       1  <0>         0.0618
     46 H7         45.9042   53.4899   45.5584 H       1  <0>         0.0618
     47 H8         47.4779   54.1813   43.8031 H       1  <0>         0.0618
     48 H9         45.4753   40.6556   47.9457 H       1  <0>         0.0620
     49 H10        43.5091   42.4136   51.2868 H       1  <0>         0.0620
     50 H11        48.3174   42.5936   53.5269 H       1  <0>         0.0625
     51 H12        44.7949   44.9243   52.9044 H       1  <0>         0.0625
     52 H13        44.4854   51.4943   45.2736 H       1  <0>         0.0624
     53 H14        47.6883   52.9096   41.7106 H       1  <0>         0.0636
     54 H15        44.8862   48.8087   40.9421 H       1  <0>         0.0784
     55 H16        46.0125   47.4057   47.4563 H       1  <0>         0.0360
     56 H17        47.2343   46.9152   46.2436 H       1  <0>         0.0360
     57 H18        45.8344   44.5267   46.7466 H       1  <0>         0.0322
     58 H19        47.4324   44.9764   47.4459 H       1  <0>         0.0322
     59 H20        44.6803   42.8821   47.7886 H       1  <0>         0.0333
     60 H21        43.6365   43.5802   49.0876 H       1  <0>         0.0333
     61 H22        43.2969   49.6269   44.4404 H       1  <0>         0.0335
     62 H23        42.6826   49.0506   42.8353 H       1  <0>         0.0335
     63 H24        43.0572   47.1448   44.2582 H       1  <0>         0.0563
     64 H25        46.6877   43.4057   49.0414 H       1  <0>         0.0554
     65 H26        46.6318   50.6341   40.4354 H       1  <0>         0.1516
     66 H27        45.5010   48.4958   45.0862 H       1  <0>         0.1493
     67 H28        44.8337   44.0804   51.2884 H       1  <0>         0.1495
     68 H29        44.0209   45.7125   49.5802 H       1  <0>         0.2128
     69 H30        46.7202   45.6768   50.4276 H       1  <0>         0.2128
@<TRIPOS>BOND
     1     1     3   ar
     2     1     4   ar
     3     2     5   ar
     4     2     6   ar
     5     3     9   ar
     6     4    10   ar
     7     5    11   ar
     8     6    12   ar
     9     7     8   ar
    10     7    13   ar
    11     8    14   ar
    12     9    20   ar
    13    10    20   ar
    14    11    21   ar
    15    12    21   ar
    16    13    22   ar
    17    14    23   ar
    18    15    24    2
    19    15    31    1
    20    16    17    1
    21    16    27    1
    22    17    30    1
    23    18    20    1
    24    18    26    1
    25    19    24    1
    26    19    25    1
    27    21    28    1
    28    22    23   ar
    29    22    24    1
    30    23    31    1
    31    25    29    1
    32    25    32    1
    33    26    30    1
    34    26    33    1
    35    27    32   am
    36    27    37    2
    37    28    33   am
    38    28    38    2
    39    29    36    1
    40    29    39    2
    41    30    34    1
    42    30    35    1
    43     1    40    1
    44     2    41    1
    45     3    42    1
    46     4    43    1
    47     5    44    1
    48     6    45    1
    49     7    46    1
    50     8    47    1
    51     9    48    1
    52    10    49    1
    53    11    50    1
    54    12    51    1
    55    13    52    1
    56    14    53    1
    57    15    54    1
    58    16    55    1
    59    16    56    1
    60    17    57    1
    61    17    58    1
    62    18    59    1
    63    18    60    1
    64    19    61    1
    65    19    62    1
    66    25    63    1
    67    26    64    1
    68    31    65    1
    69    32    66    1
    70    33    67    1
    71    34    68    1
    72    35    69    1
@<TRIPOS>SUBSTRUCTURE
     1 <0>         1 TEMP              0 ****  ****    0 ROOT

