
##########                                Name:        KAW_800_3BKL
##########                    Molecular_Weight:             528.585
##########                DOCK_Rotatable_Bonds:                  16
##########                       Formal_Charge:             -0.9998
##########                     HBond_Acceptors:                   9
##########                        HBond_Donors:                   5
##########                         Heavy_Atoms:                  39
##########                            HA_RMSDs:               5.230
##########                            HA_RMSDh:               4.242
##########                            HA_RMSDm:               3.726
##########                          Grid_Score:          -57.916428
##########                     Grid_vdw_energy:          -57.916428
##########                      Grid_es_energy:            0.000000
##########           Internal_energy_repulsive:           29.742483

@<TRIPOS>MOLECULE
KAW_800_3BKL
 69 72 1 0 0
SMALL
USER_CHARGES


@<TRIPOS>ATOM
      1 C1         44.9279   39.1659   50.5875 C.ar    1  <0>        -0.0617
      2 C2         46.0121   44.2514   55.6988 C.ar    1  <0>        -0.0617
      3 C3         45.4674   39.3676   49.3307 C.ar    1  <0>        -0.0615
      4 C4         44.3190   40.2180   51.2464 C.ar    1  <0>        -0.0615
      5 C5         47.3122   44.1104   55.2506 C.ar    1  <0>        -0.0610
      6 C6         44.9717   44.3186   54.7912 C.ar    1  <0>        -0.0610
      7 C7         45.9680   52.7272   44.6909 C.ar    1  <0>        -0.0611
      8 C8         46.7076   53.2129   43.6054 C.ar    1  <0>        -0.0600
      9 C9         45.3972   40.6156   48.7396 C.ar    1  <0>        -0.0585
     10 C10        44.2528   41.4622   50.6479 C.ar    1  <0>        -0.0585
     11 C11        47.5761   44.0383   53.8954 C.ar    1  <0>        -0.0496
     12 C12        45.2314   44.2449   53.4353 C.ar    1  <0>        -0.0496
     13 C13        45.1181   51.6456   44.5508 C.ar    1  <0>        -0.0525
     14 C14        46.6231   52.6426   42.3639 C.ar    1  <0>        -0.0400
     15 C15        44.5714   49.8196   41.4670 C.2     1  <0>        -0.0024
     16 C16        46.2606   46.7123   46.5464 C.3     1  <0>         0.0289
     17 C17        46.3985   45.3399   47.2327 C.3     1  <0>         0.0111
     18 C18        44.7302   43.0372   48.7511 C.3     1  <0>        -0.0042
     19 C19        43.2680   49.1055   43.5586 C.3     1  <0>        -0.0021
     20 C20        44.7883   41.6772   49.3893 C.ar    1  <0>        -0.0454
     21 C21        46.5333   44.1076   52.9874 C.ar    1  <0>         0.0367
     22 C22        45.0097   51.0389   43.2949 C.ar    1  <0>         0.0005
     23 C23        45.7665   51.5509   42.2212 C.ar    1  <0>         0.0385
     24 C24        44.2493   49.9353   42.7883 C.2     1  <0>        -0.0226
     25 C25        43.7496   47.6858   43.8599 C.3     1  <0>         0.0666
     26 C26        45.8271   43.9713   49.2666 C.3     1  <0>         0.0808
     27 C27        45.1217   46.6157   45.5364 C.2     1  <0>         0.2137
     28 C28        46.8111   44.0461   51.4849 C.2     1  <0>         0.2445
     29 C29        44.2166   46.9991   42.5751 C.2     1  <0>         0.0623
     30 C30        45.7555   45.3579   48.6219 C.3     1  <0>         0.1840
     31 N1         45.4822   50.7892   41.1196 N.pl3   1  <0>        -0.3198
     32 N2         44.8224   47.7112   44.8471 N.am    1  <0>        -0.3070
     33 N3         45.7262   44.0393   50.7192 N.am    1  <0>        -0.3030
     34 O1         44.3986   45.8047   48.5460 O.3     1  <0>        -0.3632
     35 O2         46.4929   46.2665   49.4422 O.3     1  <0>        -0.3632
     36 O3         45.4275   46.7059   42.4763 O.co2   1  <0>        -0.5479
     37 O4         44.5269   45.5511   45.3712 O.2     1  <0>        -0.2758
     38 O5         47.9570   44.0537   51.0352 O.2     1  <0>        -0.2702
     39 O6         43.3684   46.7645   41.6892 O.co2   1  <0>        -0.5479
     40 H1         44.9817   38.1923   51.0519 H       1  <0>         0.0618
     41 H2         45.8093   44.3089   56.7580 H       1  <0>         0.0618
     42 H3         45.9440   38.5500   48.8103 H       1  <0>         0.0618
     43 H4         43.8952   40.0678   52.2284 H       1  <0>         0.0618
     44 H5         48.1239   44.0565   55.9609 H       1  <0>         0.0618
     45 H6         43.9559   44.4287   55.1413 H       1  <0>         0.0618
     46 H7         46.0631   53.2060   45.6543 H       1  <0>         0.0618
     47 H8         47.3618   54.0596   43.7516 H       1  <0>         0.0618
     48 H9         45.8226   40.7649   47.7581 H       1  <0>         0.0620
     49 H10        43.7763   42.2788   51.1699 H       1  <0>         0.0620
     50 H11        48.5922   43.9283   53.5463 H       1  <0>         0.0625
     51 H12        44.4184   44.2944   52.7261 H       1  <0>         0.0625
     52 H13        44.5505   51.2772   45.3924 H       1  <0>         0.0624
     53 H14        47.1954   53.0217   41.5301 H       1  <0>         0.0636
     54 H15        44.1701   49.0764   40.7939 H       1  <0>         0.0784
     55 H16        46.0363   47.4869   47.2944 H       1  <0>         0.0360
     56 H17        47.1981   46.9730   46.0334 H       1  <0>         0.0360
     57 H18        45.8979   44.5790   46.6160 H       1  <0>         0.0322
     58 H19        47.4662   45.0963   47.3353 H       1  <0>         0.0322
     59 H20        44.8551   42.9185   47.6647 H       1  <0>         0.0333
     60 H21        43.7528   43.4878   48.9783 H       1  <0>         0.0333
     61 H22        43.0775   49.6093   44.5178 H       1  <0>         0.0335
     62 H23        42.3460   49.0313   42.9632 H       1  <0>         0.0335
     63 H24        42.9095   47.1106   44.2762 H       1  <0>         0.0563
     64 H25        46.8107   43.5674   48.9850 H       1  <0>         0.0554
     65 H26        45.8742   50.9174   40.2085 H       1  <0>         0.1516
     66 H27        45.3342   48.5556   45.0057 H       1  <0>         0.1493
     67 H28        44.8232   44.0816   51.1469 H       1  <0>         0.1495
     68 H29        44.0354   45.8655   49.4217 H       1  <0>         0.2128
     69 H30        46.5441   45.9247   50.3271 H       1  <0>         0.2128
@<TRIPOS>BOND
     1     1     3   ar
     2     1     4   ar
     3     2     5   ar
     4     2     6   ar
     5     3     9   ar
     6     4    10   ar
     7     5    11   ar
     8     6    12   ar
     9     7     8   ar
    10     7    13   ar
    11     8    14   ar
    12     9    20   ar
    13    10    20   ar
    14    11    21   ar
    15    12    21   ar
    16    13    22   ar
    17    14    23   ar
    18    15    24    2
    19    15    31    1
    20    16    17    1
    21    16    27    1
    22    17    30    1
    23    18    20    1
    24    18    26    1
    25    19    24    1
    26    19    25    1
    27    21    28    1
    28    22    23   ar
    29    22    24    1
    30    23    31    1
    31    25    29    1
    32    25    32    1
    33    26    30    1
    34    26    33    1
    35    27    32   am
    36    27    37    2
    37    28    33   am
    38    28    38    2
    39    29    36    1
    40    29    39    2
    41    30    34    1
    42    30    35    1
    43     1    40    1
    44     2    41    1
    45     3    42    1
    46     4    43    1
    47     5    44    1
    48     6    45    1
    49     7    46    1
    50     8    47    1
    51     9    48    1
    52    10    49    1
    53    11    50    1
    54    12    51    1
    55    13    52    1
    56    14    53    1
    57    15    54    1
    58    16    55    1
    59    16    56    1
    60    17    57    1
    61    17    58    1
    62    18    59    1
    63    18    60    1
    64    19    61    1
    65    19    62    1
    66    25    63    1
    67    26    64    1
    68    31    65    1
    69    32    66    1
    70    33    67    1
    71    34    68    1
    72    35    69    1
@<TRIPOS>SUBSTRUCTURE
     1 <0>         1 TEMP              0 ****  ****    0 ROOT

