
##########                                Name:        KAW_800_3BKL
##########                    Molecular_Weight:             528.585
##########                DOCK_Rotatable_Bonds:                  16
##########                       Formal_Charge:             -0.9998
##########                     HBond_Acceptors:                   9
##########                        HBond_Donors:                   5
##########                         Heavy_Atoms:                  39
##########                            HA_RMSDs:               1.432
##########                            HA_RMSDh:               1.432
##########                            HA_RMSDm:               1.340
##########                          Grid_Score:          -50.661873
##########                     Grid_vdw_energy:          -50.661873
##########                      Grid_es_energy:            0.000000
##########           Internal_energy_repulsive:           32.760857

@<TRIPOS>MOLECULE
KAW_800_3BKL
 69 72 1 0 0
SMALL
USER_CHARGES


@<TRIPOS>ATOM
      1 C1         48.7466   44.6149   52.8588 C.ar    1  <0>        -0.0617
      2 C2         44.8241   38.6244   51.0349 C.ar    1  <0>        -0.0617
      3 C3         47.9847   45.7290   52.5592 C.ar    1  <0>        -0.0615
      4 C4         48.9729   43.6600   51.8846 C.ar    1  <0>        -0.0615
      5 C5         44.1024   39.4746   51.8520 C.ar    1  <0>        -0.0610
      6 C6         45.4793   39.1238   49.9249 C.ar    1  <0>        -0.0610
      7 C7         41.1279   46.9801   39.9017 C.ar    1  <0>        -0.0611
      8 C8         40.6815   48.2511   39.5193 C.ar    1  <0>        -0.0600
      9 C9         47.4532   45.8836   51.2922 C.ar    1  <0>        -0.0585
     10 C10        48.4381   43.8228   50.6205 C.ar    1  <0>        -0.0585
     11 C11        44.0319   40.8244   51.5613 C.ar    1  <0>        -0.0496
     12 C12        45.4129   40.4733   49.6321 C.ar    1  <0>        -0.0496
     13 C13        42.4407   46.7668   40.2798 C.ar    1  <0>        -0.0525
     14 C14        41.5192   49.3335   39.5022 C.ar    1  <0>        -0.0400
     15 C15        45.0111   49.3210   40.3910 C.2     1  <0>        -0.0024
     16 C16        44.4272   46.5699   45.7183 C.3     1  <0>         0.0289
     17 C17        45.0737   46.3384   47.0973 C.3     1  <0>         0.0111
     18 C18        47.0792   45.0968   48.9363 C.3     1  <0>        -0.0042
     19 C19        45.6498   46.9153   41.0141 C.3     1  <0>        -0.0021
     20 C20        47.6741   44.9343   50.3074 C.ar    1  <0>        -0.0454
     21 C21        44.6872   41.3228   50.4483 C.ar    1  <0>         0.0367
     22 C22        43.3227   47.8527   40.2745 C.ar    1  <0>         0.0005
     23 C23        42.8439   49.1199   39.8839 C.ar    1  <0>         0.0385
     24 C24        44.7122   48.0041   40.5896 C.2     1  <0>        -0.0226
     25 C25        46.2350   47.1039   42.4142 C.3     1  <0>         0.0666
     26 C26        45.6193   44.6425   48.8758 C.3     1  <0>         0.0808
     27 C27        45.5487   46.8054   44.7116 C.2     1  <0>         0.2137
     28 C28        44.6047   42.8107   50.1044 C.2     1  <0>         0.2445
     29 C29        46.8281   48.5067   42.5577 C.2     1  <0>         0.0623
     30 C30        45.0030   44.8608   47.4916 C.3     1  <0>         0.1840
     31 N1         43.8921   49.9970   39.9653 N.pl3   1  <0>        -0.3198
     32 N2         45.2128   46.8729   43.4281 N.am    1  <0>        -0.3070
     33 N3         45.5564   43.2454   49.2866 N.am    1  <0>        -0.3030
     34 O1         45.6598   44.0448   46.5173 O.3     1  <0>        -0.3632
     35 O2         43.6264   44.4822   47.5549 O.3     1  <0>        -0.3632
     36 O3         46.1387   49.3766   43.1322 O.co2   1  <0>        -0.5479
     37 O4         46.7100   46.9403   45.0961 O.2     1  <0>        -0.2758
     38 O5         43.6923   43.5241   50.5212 O.2     1  <0>        -0.2702
     39 O6         47.9695   48.7152   42.0961 O.co2   1  <0>        -0.5479
     40 H1         49.1627   44.4912   53.8477 H       1  <0>         0.0618
     41 H2         44.8759   37.5703   51.2638 H       1  <0>         0.0618
     42 H3         47.8045   46.4789   53.3153 H       1  <0>         0.0618
     43 H4         49.5673   42.7873   52.1114 H       1  <0>         0.0618
     44 H5         43.5922   39.0833   52.7197 H       1  <0>         0.0618
     45 H6         46.0432   38.4598   49.2866 H       1  <0>         0.0618
     46 H7         40.4347   46.1519   39.9013 H       1  <0>         0.0618
     47 H8         39.6490   48.3808   39.2302 H       1  <0>         0.0618
     48 H9         46.8578   46.7561   51.0671 H       1  <0>         0.0620
     49 H10        48.6188   43.0717   49.8658 H       1  <0>         0.0620
     50 H11        43.4677   41.4875   52.2003 H       1  <0>         0.0625
     51 H12        45.9272   40.8642   48.7665 H       1  <0>         0.0625
     52 H13        42.7778   45.7836   40.5728 H       1  <0>         0.0624
     53 H14        41.1696   50.3114   39.2058 H       1  <0>         0.0636
     54 H15        45.9829   49.7662   40.5454 H       1  <0>         0.0784
     55 H16        43.8372   45.6888   45.4259 H       1  <0>         0.0360
     56 H17        43.7639   47.4466   45.7553 H       1  <0>         0.0360
     57 H18        46.1284   46.6478   47.0551 H       1  <0>         0.0322
     58 H19        44.5375   46.9359   47.8493 H       1  <0>         0.0322
     59 H20        47.1254   46.1605   48.6596 H       1  <0>         0.0333
     60 H21        47.6630   44.4903   48.2284 H       1  <0>         0.0333
     61 H22        45.0937   45.9662   41.0044 H       1  <0>         0.0335
     62 H23        46.4849   46.8893   40.2986 H       1  <0>         0.0335
     63 H24        47.0402   46.3690   42.5606 H       1  <0>         0.0563
     64 H25        45.0189   45.2554   49.5641 H       1  <0>         0.0554
     65 H26        43.8505   50.9726   39.7497 H       1  <0>         0.1516
     66 H27        44.2565   46.7650   43.1565 H       1  <0>         0.1493
     67 H28        46.2427   42.6025   48.9464 H       1  <0>         0.1495
     68 H29        45.6989   43.1483   46.8290 H       1  <0>         0.2128
     69 H30        43.4520   44.0584   48.3870 H       1  <0>         0.2128
@<TRIPOS>BOND
     1     1     3   ar
     2     1     4   ar
     3     2     5   ar
     4     2     6   ar
     5     3     9   ar
     6     4    10   ar
     7     5    11   ar
     8     6    12   ar
     9     7     8   ar
    10     7    13   ar
    11     8    14   ar
    12     9    20   ar
    13    10    20   ar
    14    11    21   ar
    15    12    21   ar
    16    13    22   ar
    17    14    23   ar
    18    15    24    2
    19    15    31    1
    20    16    17    1
    21    16    27    1
    22    17    30    1
    23    18    20    1
    24    18    26    1
    25    19    24    1
    26    19    25    1
    27    21    28    1
    28    22    23   ar
    29    22    24    1
    30    23    31    1
    31    25    29    1
    32    25    32    1
    33    26    30    1
    34    26    33    1
    35    27    32   am
    36    27    37    2
    37    28    33   am
    38    28    38    2
    39    29    36    1
    40    29    39    2
    41    30    34    1
    42    30    35    1
    43     1    40    1
    44     2    41    1
    45     3    42    1
    46     4    43    1
    47     5    44    1
    48     6    45    1
    49     7    46    1
    50     8    47    1
    51     9    48    1
    52    10    49    1
    53    11    50    1
    54    12    51    1
    55    13    52    1
    56    14    53    1
    57    15    54    1
    58    16    55    1
    59    16    56    1
    60    17    57    1
    61    17    58    1
    62    18    59    1
    63    18    60    1
    64    19    61    1
    65    19    62    1
    66    25    63    1
    67    26    64    1
    68    31    65    1
    69    32    66    1
    70    33    67    1
    71    34    68    1
    72    35    69    1
@<TRIPOS>SUBSTRUCTURE
     1 <0>         1 TEMP              0 ****  ****    0 ROOT

