
##########                                Name:        KAW_800_3BKL
##########                    Molecular_Weight:             528.585
##########                DOCK_Rotatable_Bonds:                  16
##########                       Formal_Charge:             -0.9998
##########                     HBond_Acceptors:                   9
##########                        HBond_Donors:                   5
##########                         Heavy_Atoms:                  39
##########                            HA_RMSDs:              11.414
##########                            HA_RMSDh:               8.837
##########                            HA_RMSDm:               7.649
##########                          Grid_Score:            3.593818
##########                     Grid_vdw_energy:           -0.007829
##########                      Grid_es_energy:            3.601647
##########           Internal_energy_repulsive:           13.837310

@<TRIPOS>MOLECULE
KAW_800_3BKL
 69 72 1 0 0
SMALL
USER_CHARGES


@<TRIPOS>ATOM
      1 C1         48.0267   50.9116   43.0085 C.ar    1  <0>        -0.0617
      2 C2         51.7106   43.9651   40.3987 C.ar    1  <0>        -0.0617
      3 C3         48.8582   51.3625   44.0168 C.ar    1  <0>        -0.0615
      4 C4         47.7334   49.5634   42.9168 C.ar    1  <0>        -0.0615
      5 C5         51.4609   45.2631   39.9935 C.ar    1  <0>        -0.0610
      6 C6         51.9738   43.6950   41.7286 C.ar    1  <0>        -0.0610
      7 C7         47.4612   46.9535   50.9765 C.ar    1  <0>        -0.0611
      8 C8         47.4906   45.5838   50.6863 C.ar    1  <0>        -0.0600
      9 C9         49.3919   50.4678   44.9259 C.ar    1  <0>        -0.0585
     10 C10        48.2709   48.6759   43.8300 C.ar    1  <0>        -0.0585
     11 C11        51.4756   46.2938   40.9149 C.ar    1  <0>        -0.0496
     12 C12        51.9874   44.7227   42.6532 C.ar    1  <0>        -0.0496
     13 C13        48.5317   47.5779   51.5897 C.ar    1  <0>        -0.0525
     14 C14        48.5736   44.8056   50.9948 C.ar    1  <0>        -0.0400
     15 C15        51.6034   45.9310   52.5875 C.2     1  <0>        -0.0024
     16 C16        53.3993   48.0764   48.6960 C.3     1  <0>         0.0289
     17 C17        52.5465   48.5539   47.5052 C.3     1  <0>         0.0111
     18 C18        49.7011   48.1425   45.8241 C.3     1  <0>        -0.0042
     19 C19        51.3437   48.4362   53.0782 C.3     1  <0>        -0.0021
     20 C20        49.1042   49.1148   44.8450 C.ar    1  <0>        -0.0454
     21 C21        51.7411   46.0220   42.2461 C.ar    1  <0>         0.0367
     22 C22        49.6549   46.8110   51.9171 C.ar    1  <0>         0.0005
     23 C23        49.6545   45.4344   51.6130 C.ar    1  <0>         0.0385
     24 C24        50.9091   47.1054   52.5442 C.2     1  <0>        -0.0226
     25 C25        52.3184   49.1868   52.1700 C.3     1  <0>         0.0666
     26 C26        51.1701   47.8383   45.5228 C.3     1  <0>         0.0808
     27 C27        53.0808   48.9744   49.8870 C.2     1  <0>         0.2137
     28 C28        51.7774   47.1537   43.2740 C.2     1  <0>         0.2445
     29 C29        53.5933   49.5423   52.9371 C.2     1  <0>         0.0623
     30 C30        51.9288   47.3647   46.7651 C.3     1  <0>         0.1840
     31 N1         50.8538   44.9221   52.0302 N.pl3   1  <0>        -0.3198
     32 N2         52.6345   48.3875   50.9921 N.am    1  <0>        -0.3070
     33 N3         51.2237   46.8590   44.4445 N.am    1  <0>        -0.3030
     34 O1         51.0611   46.6256   47.6296 O.3     1  <0>        -0.3632
     35 O2         52.9890   46.5074   46.3367 O.3     1  <0>        -0.3632
     36 O3         54.5778   48.7815   52.8187 O.co2   1  <0>        -0.5479
     37 O4         53.2525   50.1907   49.8110 O.2     1  <0>        -0.2758
     38 O5         52.3252   48.2301   43.0360 O.2     1  <0>        -0.2702
     39 O6         53.5899   50.5727   53.6425 O.co2   1  <0>        -0.5479
     40 H1         47.6088   51.6081   42.2968 H       1  <0>         0.0618
     41 H2         51.6999   43.1624   39.6764 H       1  <0>         0.0618
     42 H3         49.0910   52.4143   44.0945 H       1  <0>         0.0618
     43 H4         47.0845   49.2039   42.1319 H       1  <0>         0.0618
     44 H5         51.2539   45.4725   38.9545 H       1  <0>         0.0618
     45 H6         52.1688   42.6810   42.0452 H       1  <0>         0.0618
     46 H7         46.5871   47.5322   50.7169 H       1  <0>         0.0618
     47 H8         46.6363   45.1295   50.2065 H       1  <0>         0.0618
     48 H9         50.0418   50.8283   45.7095 H       1  <0>         0.0620
     49 H10        48.0374   47.6245   43.7506 H       1  <0>         0.0620
     50 H11        51.2805   47.3074   40.5971 H       1  <0>         0.0625
     51 H12        52.1901   44.5114   43.6928 H       1  <0>         0.0625
     52 H13        48.5014   48.6345   51.8109 H       1  <0>         0.0624
     53 H14        48.5905   43.7496   50.7692 H       1  <0>         0.0636
     54 H15        52.5950   45.8119   52.9986 H       1  <0>         0.0784
     55 H16        53.1578   47.0307   48.9372 H       1  <0>         0.0360
     56 H17        54.4683   48.1467   48.4463 H       1  <0>         0.0360
     57 H18        51.7397   49.2014   47.8791 H       1  <0>         0.0322
     58 H19        53.1862   49.1161   46.8090 H       1  <0>         0.0322
     59 H20        49.6345   48.5773   46.8324 H       1  <0>         0.0333
     60 H21        49.1324   47.2023   45.7731 H       1  <0>         0.0333
     61 H22        50.4468   49.0608   53.2023 H       1  <0>         0.0335
     62 H23        51.8423   48.2672   54.0441 H       1  <0>         0.0335
     63 H24        51.8409   50.1202   51.8372 H       1  <0>         0.0563
     64 H25        51.6752   48.7625   45.2054 H       1  <0>         0.0554
     65 H26        51.1387   43.9675   51.9436 H       1  <0>         0.1516
     66 H27        52.5149   47.3950   51.0162 H       1  <0>         0.1493
     67 H28        50.8365   45.9483   44.5889 H       1  <0>         0.1495
     68 H29        50.4339   46.1384   47.1083 H       1  <0>         0.2128
     69 H30        53.1594   46.6510   45.4132 H       1  <0>         0.2128
@<TRIPOS>BOND
     1     1     3   ar
     2     1     4   ar
     3     2     5   ar
     4     2     6   ar
     5     3     9   ar
     6     4    10   ar
     7     5    11   ar
     8     6    12   ar
     9     7     8   ar
    10     7    13   ar
    11     8    14   ar
    12     9    20   ar
    13    10    20   ar
    14    11    21   ar
    15    12    21   ar
    16    13    22   ar
    17    14    23   ar
    18    15    24    2
    19    15    31    1
    20    16    17    1
    21    16    27    1
    22    17    30    1
    23    18    20    1
    24    18    26    1
    25    19    24    1
    26    19    25    1
    27    21    28    1
    28    22    23   ar
    29    22    24    1
    30    23    31    1
    31    25    29    1
    32    25    32    1
    33    26    30    1
    34    26    33    1
    35    27    32   am
    36    27    37    2
    37    28    33   am
    38    28    38    2
    39    29    36    1
    40    29    39    2
    41    30    34    1
    42    30    35    1
    43     1    40    1
    44     2    41    1
    45     3    42    1
    46     4    43    1
    47     5    44    1
    48     6    45    1
    49     7    46    1
    50     8    47    1
    51     9    48    1
    52    10    49    1
    53    11    50    1
    54    12    51    1
    55    13    52    1
    56    14    53    1
    57    15    54    1
    58    16    55    1
    59    16    56    1
    60    17    57    1
    61    17    58    1
    62    18    59    1
    63    18    60    1
    64    19    61    1
    65    19    62    1
    66    25    63    1
    67    26    64    1
    68    31    65    1
    69    32    66    1
    70    33    67    1
    71    34    68    1
    72    35    69    1
@<TRIPOS>SUBSTRUCTURE
     1 <0>         1 TEMP              0 ****  ****    0 ROOT

