
##########                                Name:        KAW_800_3BKL
##########                    Molecular_Weight:             528.585
##########                DOCK_Rotatable_Bonds:                  16
##########                       Formal_Charge:             -0.9998
##########                     HBond_Acceptors:                   9
##########                        HBond_Donors:                   5
##########                         Heavy_Atoms:                  39
##########                            HA_RMSDs:               5.257
##########                            HA_RMSDh:               4.278
##########                            HA_RMSDm:               3.759
##########                          Grid_Score:          -57.563068
##########                     Grid_vdw_energy:          -57.563068
##########                      Grid_es_energy:            0.000000
##########           Internal_energy_repulsive:           28.463469

@<TRIPOS>MOLECULE
KAW_800_3BKL
 69 72 1 0 0
SMALL
USER_CHARGES


@<TRIPOS>ATOM
      1 C1         44.6463   39.6111   51.3988 C.ar    1  <0>        -0.0617
      2 C2         46.1907   44.3064   55.7273 C.ar    1  <0>        -0.0617
      3 C3         45.7609   39.7063   50.5863 C.ar    1  <0>        -0.0615
      4 C4         43.6801   40.5991   51.3514 C.ar    1  <0>        -0.0615
      5 C5         47.4200   43.8450   55.2946 C.ar    1  <0>        -0.0610
      6 C6         45.2428   44.7141   54.8074 C.ar    1  <0>        -0.0610
      7 C7         46.0018   52.9577   44.5852 C.ar    1  <0>        -0.0611
      8 C8         46.7431   53.3855   43.4768 C.ar    1  <0>        -0.0600
      9 C9         45.9053   40.7846   49.7331 C.ar    1  <0>        -0.0585
     10 C10        43.8322   41.6734   50.4951 C.ar    1  <0>        -0.0585
     11 C11        47.7059   43.7918   53.9430 C.ar    1  <0>        -0.0496
     12 C12        45.5243   44.6604   53.4549 C.ar    1  <0>        -0.0496
     13 C13        45.1790   51.8489   44.5108 C.ar    1  <0>        -0.0525
     14 C14        46.6871   52.7298   42.2766 C.ar    1  <0>        -0.0400
     15 C15        44.7125   49.8037   41.5540 C.2     1  <0>        -0.0024
     16 C16        46.4063   46.7299   46.5688 C.3     1  <0>         0.0289
     17 C17        46.5495   45.3429   47.2239 C.3     1  <0>         0.0111
     18 C18        45.1127   42.9604   48.7600 C.3     1  <0>        -0.0042
     19 C19        43.4005   49.2032   43.6758 C.3     1  <0>        -0.0021
     20 C20        44.9432   41.7801   49.6756 C.ar    1  <0>        -0.0454
     21 C21        46.7563   44.2021   53.0229 C.ar    1  <0>         0.0367
     22 C22        45.1000   51.1553   43.2984 C.ar    1  <0>         0.0005
     23 C23        45.8577   51.6107   42.2002 C.ar    1  <0>         0.0385
     24 C24        44.3716   50.0017   42.8608 C.2     1  <0>        -0.0226
     25 C25        43.8477   47.7672   43.9521 C.3     1  <0>         0.0666
     26 C26        46.1311   43.9707   49.2923 C.3     1  <0>         0.0808
     27 C27        45.2112   46.6770   45.6225 C.2     1  <0>         0.2137
     28 C28        47.0640   44.1648   51.5254 C.2     1  <0>         0.2445
     29 C29        44.2245   47.0672   42.6451 C.2     1  <0>         0.0623
     30 C30        45.9734   45.3476   48.6422 C.3     1  <0>         0.1840
     31 N1         45.6047   50.7687   41.1505 N.pl3   1  <0>        -0.3198
     32 N2         44.9697   47.7540   44.8832 N.am    1  <0>        -0.3070
     33 N3         45.9993   44.0339   50.7426 N.am    1  <0>        -0.3030
     34 O1         44.5977   45.7396   48.6286 O.3     1  <0>        -0.3632
     35 O2         46.7122   46.2919   49.4199 O.3     1  <0>        -0.3632
     36 O3         45.4321   46.8154   42.4443 O.co2   1  <0>        -0.5479
     37 O4         44.5204   45.6610   45.5509 O.2     1  <0>        -0.2758
     38 O5         48.2092   44.2974   51.0940 O.2     1  <0>        -0.2702
     39 O6         43.3105   46.7810   41.8438 O.co2   1  <0>        -0.5479
     40 H1         44.5311   38.7702   52.0667 H       1  <0>         0.0618
     41 H2         45.9709   44.3483   56.7838 H       1  <0>         0.0618
     42 H3         46.5191   38.9379   50.6181 H       1  <0>         0.0618
     43 H4         42.8067   40.5314   51.9831 H       1  <0>         0.0618
     44 H5         48.1590   43.5254   56.0144 H       1  <0>         0.0618
     45 H6         44.2824   45.0745   55.1453 H       1  <0>         0.0618
     46 H7         46.0740   53.5033   45.5145 H       1  <0>         0.0618
     47 H8         47.3756   54.2557   43.5714 H       1  <0>         0.0618
     48 H9         46.7798   40.8520   49.1028 H       1  <0>         0.0620
     49 H10        43.0733   42.4412   50.4650 H       1  <0>         0.0620
     50 H11        48.6666   43.4313   53.6062 H       1  <0>         0.0625
     51 H12        44.7828   44.9761   52.7359 H       1  <0>         0.0625
     52 H13        44.6098   51.5254   45.3696 H       1  <0>         0.0624
     53 H14        47.2605   53.0645   41.4249 H       1  <0>         0.0636
     54 H15        44.3368   49.0068   40.9293 H       1  <0>         0.0784
     55 H16        46.2422   47.4962   47.3407 H       1  <0>         0.0360
     56 H17        47.3198   46.9783   46.0086 H       1  <0>         0.0360
     57 H18        46.0055   44.6029   46.6186 H       1  <0>         0.0322
     58 H19        47.6159   45.0774   47.2713 H       1  <0>         0.0322
     59 H20        45.4606   42.5964   47.7820 H       1  <0>         0.0333
     60 H21        44.1408   43.4654   48.6580 H       1  <0>         0.0333
     61 H22        43.2729   49.7104   44.6436 H       1  <0>         0.0335
     62 H23        42.4494   49.1618   43.1248 H       1  <0>         0.0335
     63 H24        43.0105   47.2206   44.4108 H       1  <0>         0.0563
     64 H25        47.1458   43.6369   49.0297 H       1  <0>         0.0554
     65 H26        46.0048   50.8437   40.2370 H       1  <0>         0.1516
     66 H27        45.5589   48.5578   44.9654 H       1  <0>         0.1493
     67 H28        45.0903   43.9777   51.1557 H       1  <0>         0.1495
     68 H29        44.2823   45.8208   49.5210 H       1  <0>         0.2128
     69 H30        47.3796   45.8375   49.9204 H       1  <0>         0.2128
@<TRIPOS>BOND
     1     1     3   ar
     2     1     4   ar
     3     2     5   ar
     4     2     6   ar
     5     3     9   ar
     6     4    10   ar
     7     5    11   ar
     8     6    12   ar
     9     7     8   ar
    10     7    13   ar
    11     8    14   ar
    12     9    20   ar
    13    10    20   ar
    14    11    21   ar
    15    12    21   ar
    16    13    22   ar
    17    14    23   ar
    18    15    24    2
    19    15    31    1
    20    16    17    1
    21    16    27    1
    22    17    30    1
    23    18    20    1
    24    18    26    1
    25    19    24    1
    26    19    25    1
    27    21    28    1
    28    22    23   ar
    29    22    24    1
    30    23    31    1
    31    25    29    1
    32    25    32    1
    33    26    30    1
    34    26    33    1
    35    27    32   am
    36    27    37    2
    37    28    33   am
    38    28    38    2
    39    29    36    1
    40    29    39    2
    41    30    34    1
    42    30    35    1
    43     1    40    1
    44     2    41    1
    45     3    42    1
    46     4    43    1
    47     5    44    1
    48     6    45    1
    49     7    46    1
    50     8    47    1
    51     9    48    1
    52    10    49    1
    53    11    50    1
    54    12    51    1
    55    13    52    1
    56    14    53    1
    57    15    54    1
    58    16    55    1
    59    16    56    1
    60    17    57    1
    61    17    58    1
    62    18    59    1
    63    18    60    1
    64    19    61    1
    65    19    62    1
    66    25    63    1
    67    26    64    1
    68    31    65    1
    69    32    66    1
    70    33    67    1
    71    34    68    1
    72    35    69    1
@<TRIPOS>SUBSTRUCTURE
     1 <0>         1 TEMP              0 ****  ****    0 ROOT

