
##########                                Name:        KAW_800_3BKL
##########                    Molecular_Weight:             528.585
##########                DOCK_Rotatable_Bonds:                  16
##########                       Formal_Charge:             -0.9998
##########                     HBond_Acceptors:                   9
##########                        HBond_Donors:                   5
##########                         Heavy_Atoms:                  39
##########                            HA_RMSDs:               0.924
##########                            HA_RMSDh:               0.924
##########                            HA_RMSDm:               0.884
##########                          Grid_Score:          -59.180439
##########                     Grid_vdw_energy:          -59.180439
##########                      Grid_es_energy:            0.000000
##########           Internal_energy_repulsive:           31.810963

@<TRIPOS>MOLECULE
KAW_800_3BKL
 69 72 1 0 0
SMALL
USER_CHARGES


@<TRIPOS>ATOM
      1 C1         48.5487   44.8069   52.6224 C.ar    1  <0>        -0.0617
      2 C2         44.1246   38.9518   50.8393 C.ar    1  <0>        -0.0617
      3 C3         48.0049   46.0020   52.1894 C.ar    1  <0>        -0.0615
      4 C4         48.5960   43.7262   51.7612 C.ar    1  <0>        -0.0615
      5 C5         43.1845   39.8320   51.3419 C.ar    1  <0>        -0.0610
      6 C6         45.0945   39.4025   49.9636 C.ar    1  <0>        -0.0610
      7 C7         41.0701   47.2440   39.2529 C.ar    1  <0>        -0.0611
      8 C8         40.9511   48.3191   38.3634 C.ar    1  <0>        -0.0600
      9 C9         47.5118   46.1119   50.9024 C.ar    1  <0>        -0.0585
     10 C10        48.1011   43.8449   50.4761 C.ar    1  <0>        -0.0585
     11 C11        43.2098   41.1632   50.9696 C.ar    1  <0>        -0.0496
     12 C12        45.1243   40.7334   49.5904 C.ar    1  <0>        -0.0496
     13 C13        42.3027   46.8550   39.7439 C.ar    1  <0>        -0.0525
     14 C14        42.0428   49.0291   37.9419 C.ar    1  <0>        -0.0400
     15 C15        45.4604   48.4308   38.9140 C.2     1  <0>        -0.0024
     16 C16        44.6933   46.7032   45.2859 C.3     1  <0>         0.0289
     17 C17        45.4902   46.3136   46.5455 C.3     1  <0>         0.0111
     18 C18        47.0009   45.1543   48.6372 C.3     1  <0>        -0.0042
     19 C19        45.4802   46.4111   40.4965 C.3     1  <0>        -0.0021
     20 C20        47.5549   45.0364   50.0298 C.ar    1  <0>        -0.0454
     21 C21        44.1806   41.6129   50.0910 C.ar    1  <0>         0.0367
     22 C22        43.4388   47.5608   39.3337 C.ar    1  <0>         0.0005
     23 C23        43.2870   48.6380   38.4369 C.ar    1  <0>         0.0385
     24 C24        44.8375   47.4435   39.6213 C.2     1  <0>        -0.0226
     25 C25        46.1146   46.9760   41.7681 C.3     1  <0>         0.0666
     26 C26        45.5089   44.8208   48.5722 C.3     1  <0>         0.0808
     27 C27        45.6878   46.8906   44.1448 C.2     1  <0>         0.2137
     28 C28        44.2112   43.0789   49.6568 C.2     1  <0>         0.2445
     29 C29        46.4589   48.4544   41.5787 C.2     1  <0>         0.0623
     30 C30        44.9296   45.0339   47.1714 C.3     1  <0>         0.1840
     31 N1         44.5336   49.1517   38.1987 N.pl3   1  <0>        -0.3198
     32 N2         45.2191   46.7994   42.9052 N.am    1  <0>        -0.3070
     33 N3         45.3246   43.4513   49.0361 N.am    1  <0>        -0.3030
     34 O1         45.2020   43.9022   46.3399 O.3     1  <0>        -0.3632
     35 O2         43.5136   45.1823   47.2955 O.3     1  <0>        -0.3632
     36 O3         45.6463   49.3029   42.0051 O.co2   1  <0>        -0.5479
     37 O4         46.8705   47.1316   44.3852 O.2     1  <0>        -0.2758
     38 O5         43.2507   43.8285   49.8319 O.2     1  <0>        -0.2702
     39 O6         47.5323   48.7424   41.0094 O.co2   1  <0>        -0.5479
     40 H1         48.9342   44.7180   53.6274 H       1  <0>         0.0618
     41 H2         44.1012   37.9122   51.1308 H       1  <0>         0.0618
     42 H3         47.9652   46.8502   52.8568 H       1  <0>         0.0618
     43 H4         49.0195   42.7895   52.0925 H       1  <0>         0.0618
     44 H5         42.4282   39.4788   52.0272 H       1  <0>         0.0618
     45 H6         45.8290   38.7150   49.5709 H       1  <0>         0.0618
     46 H7         40.1836   46.7095   39.5608 H       1  <0>         0.0618
     47 H8         39.9721   48.5952   38.0003 H       1  <0>         0.0618
     48 H9         47.0872   47.0487   50.5727 H       1  <0>         0.0620
     49 H10        48.1411   42.9956   49.8101 H       1  <0>         0.0620
     50 H11        42.4747   41.8499   51.3627 H       1  <0>         0.0625
     51 H12        45.8838   41.0864   48.9085 H       1  <0>         0.0625
     52 H13        42.3867   46.0244   40.4291 H       1  <0>         0.0624
     53 H14        41.9451   49.8569   37.2553 H       1  <0>         0.0636
     54 H15        46.5241   48.6181   38.9160 H       1  <0>         0.0784
     55 H16        43.9754   45.9090   45.0335 H       1  <0>         0.0360
     56 H17        44.1422   47.6386   45.4630 H       1  <0>         0.0360
     57 H18        46.5410   46.1456   46.2669 H       1  <0>         0.0322
     58 H19        45.4228   47.1305   47.2791 H       1  <0>         0.0322
     59 H20        47.1426   46.1890   48.2916 H       1  <0>         0.0333
     60 H21        47.5437   44.4541   47.9852 H       1  <0>         0.0333
     61 H22        44.7049   45.6906   40.7961 H       1  <0>         0.0335
     62 H23        46.2717   45.9178   39.9134 H       1  <0>         0.0335
     63 H24        47.0449   46.4253   41.9712 H       1  <0>         0.0563
     64 H25        44.9538   45.5085   49.2270 H       1  <0>         0.0554
     65 H26        44.7373   49.9268   37.6005 H       1  <0>         0.1516
     66 H27        44.2494   46.6090   42.7514 H       1  <0>         0.1493
     67 H28        46.0499   42.7798   48.8841 H       1  <0>         0.1495
     68 H29        45.3145   43.1302   46.8820 H       1  <0>         0.2128
     69 H30        43.2291   44.8245   48.1283 H       1  <0>         0.2128
@<TRIPOS>BOND
     1     1     3   ar
     2     1     4   ar
     3     2     5   ar
     4     2     6   ar
     5     3     9   ar
     6     4    10   ar
     7     5    11   ar
     8     6    12   ar
     9     7     8   ar
    10     7    13   ar
    11     8    14   ar
    12     9    20   ar
    13    10    20   ar
    14    11    21   ar
    15    12    21   ar
    16    13    22   ar
    17    14    23   ar
    18    15    24    2
    19    15    31    1
    20    16    17    1
    21    16    27    1
    22    17    30    1
    23    18    20    1
    24    18    26    1
    25    19    24    1
    26    19    25    1
    27    21    28    1
    28    22    23   ar
    29    22    24    1
    30    23    31    1
    31    25    29    1
    32    25    32    1
    33    26    30    1
    34    26    33    1
    35    27    32   am
    36    27    37    2
    37    28    33   am
    38    28    38    2
    39    29    36    1
    40    29    39    2
    41    30    34    1
    42    30    35    1
    43     1    40    1
    44     2    41    1
    45     3    42    1
    46     4    43    1
    47     5    44    1
    48     6    45    1
    49     7    46    1
    50     8    47    1
    51     9    48    1
    52    10    49    1
    53    11    50    1
    54    12    51    1
    55    13    52    1
    56    14    53    1
    57    15    54    1
    58    16    55    1
    59    16    56    1
    60    17    57    1
    61    17    58    1
    62    18    59    1
    63    18    60    1
    64    19    61    1
    65    19    62    1
    66    25    63    1
    67    26    64    1
    68    31    65    1
    69    32    66    1
    70    33    67    1
    71    34    68    1
    72    35    69    1
@<TRIPOS>SUBSTRUCTURE
     1 <0>         1 TEMP              0 ****  ****    0 ROOT

