
##########                                Name:        KAW_800_3BKL
##########                    Molecular_Weight:             528.585
##########                DOCK_Rotatable_Bonds:                  16
##########                       Formal_Charge:             -0.9998
##########                     HBond_Acceptors:                   9
##########                        HBond_Donors:                   5
##########                         Heavy_Atoms:                  39
##########                            HA_RMSDs:               5.297
##########                            HA_RMSDh:               4.124
##########                            HA_RMSDm:               3.633
##########                          Grid_Score:          -59.475018
##########                     Grid_vdw_energy:          -59.475018
##########                      Grid_es_energy:            0.000000
##########           Internal_energy_repulsive:           32.151695

@<TRIPOS>MOLECULE
KAW_800_3BKL
 69 72 1 0 0
SMALL
USER_CHARGES


@<TRIPOS>ATOM
      1 C1         43.8928   39.0323   51.2375 C.ar    1  <0>        -0.0617
      2 C2         46.8102   44.0122   55.3264 C.ar    1  <0>        -0.0617
      3 C3         44.3600   39.0639   49.9367 C.ar    1  <0>        -0.0615
      4 C4         43.3736   40.1814   51.8049 C.ar    1  <0>        -0.0615
      5 C5         47.9190   43.6218   54.5987 C.ar    1  <0>        -0.0610
      6 C6         45.6103   44.2504   54.6829 C.ar    1  <0>        -0.0610
      7 C7         45.7791   52.8681   44.7532 C.ar    1  <0>        -0.0611
      8 C8         46.7540   53.3579   43.8751 C.ar    1  <0>        -0.0600
      9 C9         44.3073   40.2394   49.2107 C.ar    1  <0>        -0.0585
     10 C10        43.3243   41.3522   51.0718 C.ar    1  <0>        -0.0585
     11 C11        47.8322   43.4703   53.2273 C.ar    1  <0>        -0.0496
     12 C12        45.5190   44.0981   53.3118 C.ar    1  <0>        -0.0496
     13 C13        45.0352   51.7450   44.4416 C.ar    1  <0>        -0.0525
     14 C14        47.0129   52.7511   42.6758 C.ar    1  <0>        -0.0400
     15 C15        45.3686   49.8133   41.3919 C.2     1  <0>        -0.0024
     16 C16        45.6385   46.1677   46.4149 C.3     1  <0>         0.0289
     17 C17        45.3864   44.7691   47.0098 C.3     1  <0>         0.0111
     18 C18        43.7494   42.6778   48.9817 C.3     1  <0>        -0.0042
     19 C19        43.5993   49.0964   43.1065 C.3     1  <0>        -0.0021
     20 C20        43.7880   41.3969   49.7679 C.ar    1  <0>        -0.0454
     21 C21        46.6302   43.7109   52.5839 C.ar    1  <0>         0.0367
     22 C22        45.2761   51.1004   43.2237 C.ar    1  <0>         0.0005
     23 C23        46.2635   51.6176   42.3605 C.ar    1  <0>         0.0385
     24 C24        44.7136   49.9496   42.5817 C.2     1  <0>        -0.0226
     25 C25        43.9805   47.6309   43.3198 C.3     1  <0>         0.0666
     26 C26        45.0212   43.5100   49.1587 C.3     1  <0>         0.0808
     27 C27        44.8665   46.2620   45.1029 C.2     1  <0>         0.2137
     28 C28        46.5230   43.5638   51.0655 C.2     1  <0>         0.2445
     29 C29        44.8226   47.1247   42.1473 C.2     1  <0>         0.0623
     30 C30        44.9224   44.8711   48.4651 C.3     1  <0>         0.1840
     31 N1         46.3008   50.8141   41.2524 N.pl3   1  <0>        -0.3198
     32 N2         44.7021   47.4707   44.5767 N.am    1  <0>        -0.3070
     33 N3         45.2873   43.6429   50.5856 N.am    1  <0>        -0.3030
     34 O1         43.5845   45.3725   48.5359 O.3     1  <0>        -0.3632
     35 O2         45.7899   45.7795   49.1465 O.3     1  <0>        -0.3632
     36 O3         46.0644   47.1016   42.2869 O.co2   1  <0>        -0.5479
     37 O4         44.4349   45.2443   44.5618 O.2     1  <0>        -0.2758
     38 O5         47.5187   43.4333   50.3536 O.2     1  <0>        -0.2702
     39 O6         44.2312   46.7593   41.1100 O.co2   1  <0>        -0.5479
     40 H1         43.9332   38.1156   51.8071 H       1  <0>         0.0618
     41 H2         46.8816   44.1312   56.3974 H       1  <0>         0.0618
     42 H3         44.7664   38.1698   49.4872 H       1  <0>         0.0618
     43 H4         43.0067   40.1642   52.8205 H       1  <0>         0.0618
     44 H5         48.8555   43.4346   55.1030 H       1  <0>         0.0618
     45 H6         44.7440   44.5554   55.2512 H       1  <0>         0.0618
     46 H7         45.6053   53.3765   45.6901 H       1  <0>         0.0618
     47 H8         47.3162   54.2376   44.1515 H       1  <0>         0.0618
     48 H9         44.6759   40.2558   48.1956 H       1  <0>         0.0620
     49 H10        42.9181   42.2454   51.5229 H       1  <0>         0.0620
     50 H11        48.6991   43.1654   52.6599 H       1  <0>         0.0625
     51 H12        44.5807   44.2812   52.8092 H       1  <0>         0.0625
     52 H13        44.2847   51.3736   45.1235 H       1  <0>         0.0624
     53 H14        47.7655   53.1336   42.0023 H       1  <0>         0.0636
     54 H15        45.1820   49.0345   40.6673 H       1  <0>         0.0784
     55 H16        45.2904   46.9427   47.1135 H       1  <0>         0.0360
     56 H17        46.7135   46.3108   46.2307 H       1  <0>         0.0360
     57 H18        44.6074   44.2640   46.4199 H       1  <0>         0.0322
     58 H19        46.3206   44.1897   46.9714 H       1  <0>         0.0322
     59 H20        43.6402   42.4297   47.9156 H       1  <0>         0.0333
     60 H21        42.8916   43.2735   49.3270 H       1  <0>         0.0333
     61 H22        43.2844   49.5091   44.0763 H       1  <0>         0.0335
     62 H23        42.7754   49.1296   42.3785 H       1  <0>         0.0335
     63 H24        43.0592   47.0320   43.3707 H       1  <0>         0.0563
     64 H25        45.8635   42.9944   48.6741 H       1  <0>         0.0554
     65 H26        46.9087   50.9358   40.4676 H       1  <0>         0.1516
     66 H27        45.0742   48.2728   45.0438 H       1  <0>         0.1493
     67 H28        44.5253   43.7966   51.2147 H       1  <0>         0.1495
     68 H29        43.1874   45.1019   49.3554 H       1  <0>         0.2128
     69 H30        46.1545   45.3546   49.9139 H       1  <0>         0.2128
@<TRIPOS>BOND
     1     1     3   ar
     2     1     4   ar
     3     2     5   ar
     4     2     6   ar
     5     3     9   ar
     6     4    10   ar
     7     5    11   ar
     8     6    12   ar
     9     7     8   ar
    10     7    13   ar
    11     8    14   ar
    12     9    20   ar
    13    10    20   ar
    14    11    21   ar
    15    12    21   ar
    16    13    22   ar
    17    14    23   ar
    18    15    24    2
    19    15    31    1
    20    16    17    1
    21    16    27    1
    22    17    30    1
    23    18    20    1
    24    18    26    1
    25    19    24    1
    26    19    25    1
    27    21    28    1
    28    22    23   ar
    29    22    24    1
    30    23    31    1
    31    25    29    1
    32    25    32    1
    33    26    30    1
    34    26    33    1
    35    27    32   am
    36    27    37    2
    37    28    33   am
    38    28    38    2
    39    29    36    1
    40    29    39    2
    41    30    34    1
    42    30    35    1
    43     1    40    1
    44     2    41    1
    45     3    42    1
    46     4    43    1
    47     5    44    1
    48     6    45    1
    49     7    46    1
    50     8    47    1
    51     9    48    1
    52    10    49    1
    53    11    50    1
    54    12    51    1
    55    13    52    1
    56    14    53    1
    57    15    54    1
    58    16    55    1
    59    16    56    1
    60    17    57    1
    61    17    58    1
    62    18    59    1
    63    18    60    1
    64    19    61    1
    65    19    62    1
    66    25    63    1
    67    26    64    1
    68    31    65    1
    69    32    66    1
    70    33    67    1
    71    34    68    1
    72    35    69    1
@<TRIPOS>SUBSTRUCTURE
     1 <0>         1 TEMP              0 ****  ****    0 ROOT

