
##########                                Name:        KAW_800_3BKL
##########                    Molecular_Weight:             528.585
##########                DOCK_Rotatable_Bonds:                  16
##########                       Formal_Charge:             -0.9998
##########                     HBond_Acceptors:                   9
##########                        HBond_Donors:                   5
##########                         Heavy_Atoms:                  39
##########                            HA_RMSDs:               5.178
##########                            HA_RMSDh:               4.253
##########                            HA_RMSDm:               3.735
##########                          Grid_Score:          -59.244869
##########                     Grid_vdw_energy:          -59.244869
##########                      Grid_es_energy:            0.000000
##########           Internal_energy_repulsive:           30.960955

@<TRIPOS>MOLECULE
KAW_800_3BKL
 69 72 1 0 0
SMALL
USER_CHARGES


@<TRIPOS>ATOM
      1 C1         44.3337   39.4521   51.3616 C.ar    1  <0>        -0.0617
      2 C2         45.7719   43.8263   55.8003 C.ar    1  <0>        -0.0617
      3 C3         45.6258   39.6993   50.9362 C.ar    1  <0>        -0.0615
      4 C4         43.3044   40.2677   50.9289 C.ar    1  <0>        -0.0615
      5 C5         46.9866   43.2988   55.4035 C.ar    1  <0>        -0.0610
      6 C6         44.9157   44.3714   54.8620 C.ar    1  <0>        -0.0610
      7 C7         46.3922   53.0051   44.1162 C.ar    1  <0>        -0.0611
      8 C8         46.9444   53.4190   42.8977 C.ar    1  <0>        -0.0600
      9 C9         45.8833   40.7569   50.0836 C.ar    1  <0>        -0.0585
     10 C10        43.5707   41.3226   50.0763 C.ar    1  <0>        -0.0585
     11 C11        47.3494   43.3162   54.0696 C.ar    1  <0>        -0.0496
     12 C12        45.2741   44.3888   53.5268 C.ar    1  <0>        -0.0496
     13 C13        45.5816   51.8874   44.1914 C.ar    1  <0>        -0.0525
     14 C14        46.7080   52.7404   41.7326 C.ar    1  <0>        -0.0400
     15 C15        44.6800   49.7830   41.3804 C.2     1  <0>        -0.0024
     16 C16        46.3732   46.6222   46.7501 C.3     1  <0>         0.0289
     17 C17        46.4421   45.1940   47.3235 C.3     1  <0>         0.0111
     18 C18        45.1467   42.7404   48.7300 C.3     1  <0>        -0.0042
     19 C19        43.7262   49.2101   43.6926 C.3     1  <0>        -0.0021
     20 C20        44.8601   41.5802   49.6422 C.ar    1  <0>        -0.0454
     21 C21        46.4916   43.8640   53.1311 C.ar    1  <0>         0.0367
     22 C22        45.3211   51.1706   43.0186 C.ar    1  <0>         0.0005
     23 C23        45.8907   51.6124   41.8071 C.ar    1  <0>         0.0385
     24 C24        44.5470   50.0022   42.7211 C.2     1  <0>        -0.0226
     25 C25        44.1798   47.7590   43.8577 C.3     1  <0>         0.0666
     26 C26        46.0943   43.7610   49.3637 C.3     1  <0>         0.0808
     27 C27        45.2384   46.6611   45.7318 C.2     1  <0>         0.2137
     28 C28        46.8863   43.9056   51.6542 C.2     1  <0>         0.2445
     29 C29        44.6632   47.1977   42.5192 C.2     1  <0>         0.0623
     30 C30        45.9234   45.1588   48.7634 C.3     1  <0>         0.1840
     31 N1         45.4858   50.7486   40.8249 N.pl3   1  <0>        -0.3198
     32 N2         45.2318   47.6661   44.8630 N.am    1  <0>        -0.3070
     33 N3         45.8764   43.7560   50.8049 N.am    1  <0>        -0.3030
     34 O1         44.5519   45.5621   48.8175 O.3     1  <0>        -0.3632
     35 O2         46.7014   46.0724   49.5395 O.3     1  <0>        -0.3632
     36 O3         45.8930   47.1952   42.2966 O.co2   1  <0>        -0.5479
     37 O4         44.3815   45.7778   45.7228 O.2     1  <0>        -0.2758
     38 O5         48.0460   44.1126   51.2973 O.2     1  <0>        -0.2702
     39 O6         43.8088   46.7696   41.7154 O.co2   1  <0>        -0.5479
     40 H1         44.1296   38.6270   52.0279 H       1  <0>         0.0618
     41 H2         45.4920   43.8127   56.8433 H       1  <0>         0.0618
     42 H3         46.4344   39.0659   51.2699 H       1  <0>         0.0618
     43 H4         42.2925   40.0806   51.2570 H       1  <0>         0.0618
     44 H5         47.6539   42.8719   56.1376 H       1  <0>         0.0618
     45 H6         43.9667   44.7835   55.1718 H       1  <0>         0.0618
     46 H7         46.6033   53.5686   45.0131 H       1  <0>         0.0618
     47 H8         47.5733   54.2967   42.8765 H       1  <0>         0.0618
     48 H9         46.8958   40.9439   49.7574 H       1  <0>         0.0620
     49 H10        42.7611   41.9553   49.7439 H       1  <0>         0.0620
     50 H11        48.2986   42.9039   53.7608 H       1  <0>         0.0625
     51 H12        44.6039   44.8120   52.7931 H       1  <0>         0.0625
     52 H13        45.1588   51.5747   45.1347 H       1  <0>         0.0624
     53 H14        47.1359   53.0646   40.7956 H       1  <0>         0.0636
     54 H15        44.2204   48.9710   40.8365 H       1  <0>         0.0784
     55 H16        46.1799   47.3436   47.5576 H       1  <0>         0.0360
     56 H17        47.3255   46.8792   46.2631 H       1  <0>         0.0360
     57 H18        45.8233   44.5287   46.7034 H       1  <0>         0.0322
     58 H19        47.4878   44.8529   47.3110 H       1  <0>         0.0322
     59 H20        45.6128   42.3550   47.8111 H       1  <0>         0.0333
     60 H21        44.1969   43.2438   48.4967 H       1  <0>         0.0333
     61 H22        43.7964   49.7007   44.6746 H       1  <0>         0.0335
     62 H23        42.6876   49.2012   43.3304 H       1  <0>         0.0335
     63 H24        43.3224   47.1593   44.1972 H       1  <0>         0.0563
     64 H25        47.1342   43.4745   49.1482 H       1  <0>         0.0554
     65 H26        45.7359   50.8102   39.8586 H       1  <0>         0.1516
     66 H27        45.9503   48.3608   44.8985 H       1  <0>         0.1493
     67 H28        44.9493   43.6376   51.1607 H       1  <0>         0.1495
     68 H29        44.2149   45.4232   49.6947 H       1  <0>         0.2128
     69 H30        47.2796   45.5865   50.1157 H       1  <0>         0.2128
@<TRIPOS>BOND
     1     1     3   ar
     2     1     4   ar
     3     2     5   ar
     4     2     6   ar
     5     3     9   ar
     6     4    10   ar
     7     5    11   ar
     8     6    12   ar
     9     7     8   ar
    10     7    13   ar
    11     8    14   ar
    12     9    20   ar
    13    10    20   ar
    14    11    21   ar
    15    12    21   ar
    16    13    22   ar
    17    14    23   ar
    18    15    24    2
    19    15    31    1
    20    16    17    1
    21    16    27    1
    22    17    30    1
    23    18    20    1
    24    18    26    1
    25    19    24    1
    26    19    25    1
    27    21    28    1
    28    22    23   ar
    29    22    24    1
    30    23    31    1
    31    25    29    1
    32    25    32    1
    33    26    30    1
    34    26    33    1
    35    27    32   am
    36    27    37    2
    37    28    33   am
    38    28    38    2
    39    29    36    1
    40    29    39    2
    41    30    34    1
    42    30    35    1
    43     1    40    1
    44     2    41    1
    45     3    42    1
    46     4    43    1
    47     5    44    1
    48     6    45    1
    49     7    46    1
    50     8    47    1
    51     9    48    1
    52    10    49    1
    53    11    50    1
    54    12    51    1
    55    13    52    1
    56    14    53    1
    57    15    54    1
    58    16    55    1
    59    16    56    1
    60    17    57    1
    61    17    58    1
    62    18    59    1
    63    18    60    1
    64    19    61    1
    65    19    62    1
    66    25    63    1
    67    26    64    1
    68    31    65    1
    69    32    66    1
    70    33    67    1
    71    34    68    1
    72    35    69    1
@<TRIPOS>SUBSTRUCTURE
     1 <0>         1 TEMP              0 ****  ****    0 ROOT

