
##########                                Name:        KAW_800_3BKL
##########                    Molecular_Weight:             528.585
##########                DOCK_Rotatable_Bonds:                  16
##########                       Formal_Charge:             -0.9998
##########                     HBond_Acceptors:                   9
##########                        HBond_Donors:                   5
##########                         Heavy_Atoms:                  39
##########                            HA_RMSDs:               5.275
##########                            HA_RMSDh:               4.245
##########                            HA_RMSDm:               3.737
##########                          Grid_Score:          -60.598484
##########                     Grid_vdw_energy:          -60.598484
##########                      Grid_es_energy:            0.000000
##########           Internal_energy_repulsive:           30.610111

@<TRIPOS>MOLECULE
KAW_800_3BKL
 69 72 1 0 0
SMALL
USER_CHARGES


@<TRIPOS>ATOM
      1 C1         44.9777   38.9911   50.2339 C.ar    1  <0>        -0.0617
      2 C2         46.2956   44.2146   55.7348 C.ar    1  <0>        -0.0617
      3 C3         45.6314   39.4000   49.0863 C.ar    1  <0>        -0.0615
      4 C4         44.1970   39.8929   50.9334 C.ar    1  <0>        -0.0615
      5 C5         47.4538   43.6554   55.2280 C.ar    1  <0>        -0.0610
      6 C6         45.3212   44.6844   54.8742 C.ar    1  <0>        -0.0610
      7 C7         45.9775   53.1004   44.5088 C.ar    1  <0>        -0.0611
      8 C8         46.8894   53.5157   43.5304 C.ar    1  <0>        -0.0600
      9 C9         45.5034   40.7038   48.6442 C.ar    1  <0>        -0.0585
     10 C10        44.0743   41.1943   50.4842 C.ar    1  <0>        -0.0585
     11 C11        47.6422   43.5659   53.8613 C.ar    1  <0>        -0.0496
     12 C12        45.5050   44.5949   53.5069 C.ar    1  <0>        -0.0496
     13 C13        45.2254   51.9518   44.3442 C.ar    1  <0>        -0.0525
     14 C14        47.0763   52.8081   42.3737 C.ar    1  <0>        -0.0400
     15 C15        45.3797   49.7642   41.4574 C.2     1  <0>        -0.0024
     16 C16        46.2478   46.6177   46.5741 C.3     1  <0>         0.0289
     17 C17        46.2547   45.2228   47.2278 C.3     1  <0>         0.0111
     18 C18        44.6011   43.0378   48.8623 C.3     1  <0>        -0.0042
     19 C19        43.7310   49.1923   43.3385 C.3     1  <0>        -0.0021
     20 C20        44.7230   41.6161   49.3359 C.ar    1  <0>        -0.0454
     21 C21        46.6662   44.0385   53.0006 C.ar    1  <0>         0.0367
     22 C22        45.3934   51.2049   43.1734 C.ar    1  <0>         0.0005
     23 C23        46.3185   51.6488   42.2066 C.ar    1  <0>         0.0385
     24 C24        44.8013   50.0008   42.6709 C.2     1  <0>        -0.0226
     25 C25        44.1272   47.7431   43.6233 C.3     1  <0>         0.0666
     26 C26        45.7736   43.9081   49.3199 C.3     1  <0>         0.0808
     27 C27        45.1901   46.6119   45.4751 C.2     1  <0>         0.2137
     28 C28        46.8676   43.9617   51.4866 C.2     1  <0>         0.2445
     29 C29        44.6753   47.0832   42.3567 C.2     1  <0>         0.0623
     30 C30        45.7514   45.2948   48.6719 C.3     1  <0>         0.1840
     31 N1         46.2919   50.7525   41.1719 N.pl3   1  <0>        -0.3198
     32 N2         45.1110   47.6866   44.6981 N.am    1  <0>        -0.3070
     33 N3         45.7465   43.9856   50.7752 N.am    1  <0>        -0.3030
     34 O1         44.4336   45.8491   48.7216 O.3     1  <0>        -0.3632
     35 O2         46.6343   46.1426   49.4094 O.3     1  <0>        -0.3632
     36 O3         45.8744   46.7308   42.3535 O.co2   1  <0>        -0.5479
     37 O4         44.4596   45.6335   45.3215 O.2     1  <0>        -0.2758
     38 O5         47.9896   43.9313   50.9812 O.2     1  <0>        -0.2702
     39 O6         43.9010   46.9281   41.3894 O.co2   1  <0>        -0.5479
     40 H1         45.0762   37.9735   50.5819 H       1  <0>         0.0618
     41 H2         46.1521   44.2845   56.8029 H       1  <0>         0.0618
     42 H3         46.2424   38.7007   48.5349 H       1  <0>         0.0618
     43 H4         43.6833   39.5805   51.8306 H       1  <0>         0.0618
     44 H5         48.2136   43.2874   55.9016 H       1  <0>         0.0618
     45 H6         44.4162   45.1213   55.2700 H       1  <0>         0.0618
     46 H7         45.8596   53.6874   45.4076 H       1  <0>         0.0618
     47 H8         47.4602   54.4180   43.6928 H       1  <0>         0.0618
     48 H9         46.0188   41.0154   47.7477 H       1  <0>         0.0620
     49 H10        43.4634   41.8925   51.0370 H       1  <0>         0.0620
     50 H11        48.5475   43.1289   53.4666 H       1  <0>         0.0625
     51 H12        44.7425   44.9592   52.8343 H       1  <0>         0.0625
     52 H13        44.5236   51.6383   45.1028 H       1  <0>         0.0624
     53 H14        47.7805   53.1334   41.6224 H       1  <0>         0.0636
     54 H15        45.1542   48.9248   40.8163 H       1  <0>         0.0784
     55 H16        46.0069   47.3847   47.3249 H       1  <0>         0.0360
     56 H17        47.2363   46.8376   46.1446 H       1  <0>         0.0360
     57 H18        45.5977   44.5541   46.6524 H       1  <0>         0.0322
     58 H19        47.2827   44.8313   47.2258 H       1  <0>         0.0322
     59 H20        44.5745   43.0383   47.7626 H       1  <0>         0.0333
     60 H21        43.6716   43.4627   49.2690 H       1  <0>         0.0333
     61 H22        43.4922   49.6732   44.2986 H       1  <0>         0.0335
     62 H23        42.8531   49.1795   42.6758 H       1  <0>         0.0335
     63 H24        43.2318   47.1905   43.9440 H       1  <0>         0.0563
     64 H25        46.7176   43.4471   48.9938 H       1  <0>         0.0554
     65 H26        46.8469   50.8077   40.3418 H       1  <0>         0.1516
     66 H27        45.7277   48.4588   44.8508 H       1  <0>         0.1493
     67 H28        44.8675   44.0581   51.2465 H       1  <0>         0.1495
     68 H29        44.1740   45.9690   49.6276 H       1  <0>         0.2128
     69 H30        47.2820   45.6122   49.8582 H       1  <0>         0.2128
@<TRIPOS>BOND
     1     1     3   ar
     2     1     4   ar
     3     2     5   ar
     4     2     6   ar
     5     3     9   ar
     6     4    10   ar
     7     5    11   ar
     8     6    12   ar
     9     7     8   ar
    10     7    13   ar
    11     8    14   ar
    12     9    20   ar
    13    10    20   ar
    14    11    21   ar
    15    12    21   ar
    16    13    22   ar
    17    14    23   ar
    18    15    24    2
    19    15    31    1
    20    16    17    1
    21    16    27    1
    22    17    30    1
    23    18    20    1
    24    18    26    1
    25    19    24    1
    26    19    25    1
    27    21    28    1
    28    22    23   ar
    29    22    24    1
    30    23    31    1
    31    25    29    1
    32    25    32    1
    33    26    30    1
    34    26    33    1
    35    27    32   am
    36    27    37    2
    37    28    33   am
    38    28    38    2
    39    29    36    1
    40    29    39    2
    41    30    34    1
    42    30    35    1
    43     1    40    1
    44     2    41    1
    45     3    42    1
    46     4    43    1
    47     5    44    1
    48     6    45    1
    49     7    46    1
    50     8    47    1
    51     9    48    1
    52    10    49    1
    53    11    50    1
    54    12    51    1
    55    13    52    1
    56    14    53    1
    57    15    54    1
    58    16    55    1
    59    16    56    1
    60    17    57    1
    61    17    58    1
    62    18    59    1
    63    18    60    1
    64    19    61    1
    65    19    62    1
    66    25    63    1
    67    26    64    1
    68    31    65    1
    69    32    66    1
    70    33    67    1
    71    34    68    1
    72    35    69    1
@<TRIPOS>SUBSTRUCTURE
     1 <0>         1 TEMP              0 ****  ****    0 ROOT

