
##########                                Name:        KAW_800_3BKL
##########                    Molecular_Weight:             528.585
##########                DOCK_Rotatable_Bonds:                  16
##########                       Formal_Charge:             -0.9998
##########                     HBond_Acceptors:                   9
##########                        HBond_Donors:                   5
##########                         Heavy_Atoms:                  39
##########                            HA_RMSDs:               1.054
##########                            HA_RMSDh:               1.054
##########                            HA_RMSDm:               0.986
##########                          Grid_Score:          -57.622929
##########                     Grid_vdw_energy:          -57.622929
##########                      Grid_es_energy:            0.000000
##########           Internal_energy_repulsive:           32.599728

@<TRIPOS>MOLECULE
KAW_800_3BKL
 69 72 1 0 0
SMALL
USER_CHARGES


@<TRIPOS>ATOM
      1 C1         48.5846   44.6473   51.8493 C.ar    1  <0>        -0.0617
      2 C2         44.2702   39.3065   50.6127 C.ar    1  <0>        -0.0617
      3 C3         48.1050   45.9229   51.6166 C.ar    1  <0>        -0.0615
      4 C4         48.4489   43.6778   50.8727 C.ar    1  <0>        -0.0615
      5 C5         43.6722   40.2338   51.4455 C.ar    1  <0>        -0.0610
      6 C6         44.8389   39.7139   49.4205 C.ar    1  <0>        -0.0610
      7 C7         41.8226   46.5171   38.5146 C.ar    1  <0>        -0.0611
      8 C8         40.8960   47.5505   38.3286 C.ar    1  <0>        -0.0600
      9 C9         47.4933   46.2235   50.4137 C.ar    1  <0>        -0.0585
     10 C10        47.8364   43.9871   49.6729 C.ar    1  <0>        -0.0585
     11 C11        43.6390   41.5690   51.0887 C.ar    1  <0>        -0.0496
     12 C12        44.8095   41.0485   49.0611 C.ar    1  <0>        -0.0496
     13 C13        43.0832   46.7696   39.0235 C.ar    1  <0>        -0.0525
     14 C14        41.1944   48.8496   38.6400 C.ar    1  <0>        -0.0400
     15 C15        44.3169   50.0392   39.9881 C.2     1  <0>        -0.0024
     16 C16        44.4655   46.7679   44.6550 C.3     1  <0>         0.0289
     17 C17        45.0185   46.6473   46.0879 C.3     1  <0>         0.0111
     18 C18        46.6704   45.5868   48.1275 C.3     1  <0>        -0.0042
     19 C19        45.8888   48.0237   40.2134 C.3     1  <0>        -0.0021
     20 C20        47.3527   45.2610   49.4270 C.ar    1  <0>        -0.0454
     21 C21        44.2073   41.9754   49.8935 C.ar    1  <0>         0.0367
     22 C22        43.4195   48.0869   39.3531 C.ar    1  <0>         0.0005
     23 C23        42.4657   49.1057   39.1539 C.ar    1  <0>         0.0385
     24 C24        44.5974   48.7076   39.8825 C.2     1  <0>        -0.0226
     25 C25        46.3344   48.1971   41.6659 C.3     1  <0>         0.0666
     26 C26        45.1962   45.1770   48.1233 C.3     1  <0>         0.0808
     27 C27        45.6102   47.2112   43.7497 C.2     1  <0>         0.2137
     28 C28        44.1637   43.4462   49.4772 C.2     1  <0>         0.2445
     29 C29        46.6926   49.6586   41.9411 C.2     1  <0>         0.0623
     30 C30        44.5536   45.3447   46.7441 C.3     1  <0>         0.1840
     31 N1         43.0371   50.2852   39.5502 N.pl3   1  <0>        -0.3198
     32 N2         45.2890   47.7449   42.5763 N.am    1  <0>        -0.3070
     33 N3         45.1001   43.8052   48.6067 N.am    1  <0>        -0.3030
     34 O1         44.8570   44.2219   45.9112 O.3     1  <0>        -0.3632
     35 O2         43.1373   45.4158   46.9208 O.3     1  <0>        -0.3632
     36 O3         46.2897   50.1679   43.0090 O.co2   1  <0>        -0.5479
     37 O4         46.7777   47.0848   44.1177 O.2     1  <0>        -0.2758
     38 O5         43.2917   44.2119   49.8877 O.2     1  <0>        -0.2702
     39 O6         47.3687   50.2714   41.0886 O.co2   1  <0>        -0.5479
     40 H1         49.0625   44.4094   52.7882 H       1  <0>         0.0618
     41 H2         44.2932   38.2639   50.8936 H       1  <0>         0.0618
     42 H3         48.2081   46.6850   52.3749 H       1  <0>         0.0618
     43 H4         48.8213   42.6792   51.0474 H       1  <0>         0.0618
     44 H5         43.2296   39.9143   52.3774 H       1  <0>         0.0618
     45 H6         45.3062   38.9895   48.7698 H       1  <0>         0.0618
     46 H7         41.5478   45.5051   38.2560 H       1  <0>         0.0618
     47 H8         39.9204   47.3164   37.9291 H       1  <0>         0.0618
     48 H9         47.1200   47.2222   50.2407 H       1  <0>         0.0620
     49 H10        47.7336   43.2238   48.9158 H       1  <0>         0.0620
     50 H11        43.1714   42.2925   51.7400 H       1  <0>         0.0625
     51 H12        45.2564   41.3675   48.1310 H       1  <0>         0.0625
     52 H13        43.7927   45.9675   39.1635 H       1  <0>         0.0624
     53 H14        40.4760   49.6427   38.4939 H       1  <0>         0.0636
     54 H15        44.9995   50.7888   40.3605 H       1  <0>         0.0784
     55 H16        44.0741   45.7963   44.3192 H       1  <0>         0.0360
     56 H17        43.6531   47.5088   44.6256 H       1  <0>         0.0360
     57 H18        46.1178   46.6568   46.0496 H       1  <0>         0.0322
     58 H19        44.6568   47.4979   46.6842 H       1  <0>         0.0322
     59 H20        46.7312   46.6729   47.9641 H       1  <0>         0.0333
     60 H21        47.1848   45.0474   47.3185 H       1  <0>         0.0333
     61 H22        45.7604   46.9476   40.0246 H       1  <0>         0.0335
     62 H23        46.6714   48.4461   39.5662 H       1  <0>         0.0335
     63 H24        47.2304   47.5816   41.8345 H       1  <0>         0.0563
     64 H25        44.6318   45.8429   48.7926 H       1  <0>         0.0554
     65 H26        42.5945   51.1817   39.5252 H       1  <0>         0.1516
     66 H27        44.3276   47.8368   42.3166 H       1  <0>         0.1493
     67 H28        45.7514   43.1219   48.2767 H       1  <0>         0.1495
     68 H29        44.4357   43.4452   46.2601 H       1  <0>         0.2128
     69 H30        42.9240   45.2678   47.8346 H       1  <0>         0.2128
@<TRIPOS>BOND
     1     1     3   ar
     2     1     4   ar
     3     2     5   ar
     4     2     6   ar
     5     3     9   ar
     6     4    10   ar
     7     5    11   ar
     8     6    12   ar
     9     7     8   ar
    10     7    13   ar
    11     8    14   ar
    12     9    20   ar
    13    10    20   ar
    14    11    21   ar
    15    12    21   ar
    16    13    22   ar
    17    14    23   ar
    18    15    24    2
    19    15    31    1
    20    16    17    1
    21    16    27    1
    22    17    30    1
    23    18    20    1
    24    18    26    1
    25    19    24    1
    26    19    25    1
    27    21    28    1
    28    22    23   ar
    29    22    24    1
    30    23    31    1
    31    25    29    1
    32    25    32    1
    33    26    30    1
    34    26    33    1
    35    27    32   am
    36    27    37    2
    37    28    33   am
    38    28    38    2
    39    29    36    1
    40    29    39    2
    41    30    34    1
    42    30    35    1
    43     1    40    1
    44     2    41    1
    45     3    42    1
    46     4    43    1
    47     5    44    1
    48     6    45    1
    49     7    46    1
    50     8    47    1
    51     9    48    1
    52    10    49    1
    53    11    50    1
    54    12    51    1
    55    13    52    1
    56    14    53    1
    57    15    54    1
    58    16    55    1
    59    16    56    1
    60    17    57    1
    61    17    58    1
    62    18    59    1
    63    18    60    1
    64    19    61    1
    65    19    62    1
    66    25    63    1
    67    26    64    1
    68    31    65    1
    69    32    66    1
    70    33    67    1
    71    34    68    1
    72    35    69    1
@<TRIPOS>SUBSTRUCTURE
     1 <0>         1 TEMP              0 ****  ****    0 ROOT

