
##########                                Name:          G93_1_3D0E
##########                    Molecular_Weight:             426.499
##########                DOCK_Rotatable_Bonds:                   8
##########                       Formal_Charge:              1.0001
##########                     HBond_Acceptors:                  10
##########                        HBond_Donors:                   5
##########                         Heavy_Atoms:                  31
##########                            HA_RMSDs:               0.257
##########                            HA_RMSDh:               0.257
##########                            HA_RMSDm:               0.257
##########                          Grid_Score:         -127.841110
##########                     Grid_vdw_energy:          -55.269672
##########                      Grid_es_energy:          -72.571442
##########           Internal_energy_repulsive:           17.772642

@<TRIPOS>MOLECULE
G93_1_3D0E
 59 62 1 0 0
SMALL
USER_CHARGES


@<TRIPOS>ATOM
      1 C1         23.2992  -20.1814   11.7155 C.3     1  <0>        -0.0489
      2 C2         25.1669  -15.3736    3.1891 C.3     1  <0>        -0.0249
      3 C3         22.8915  -14.5078    3.7811 C.3     1  <0>        -0.0249
      4 C4         22.9237  -20.6587    6.7159 C.ar    1  <0>         0.0609
      5 C5         22.2246  -25.2175   11.3373 C.3     1  <0>        -0.0121
      6 C6         22.6811  -24.1154   10.3913 C.3     1  <0>        -0.0384
      7 C7         20.9132  -24.8343   12.0207 C.3     1  <0>        -0.0337
      8 C8         20.3426  -23.3885    9.9947 C.3     1  <0>        -0.0286
      9 C9         22.0894  -19.5803   11.0402 C.3     1  <0>         0.0160
     10 C10        22.1107  -22.8916    8.2817 C.3     1  <0>         0.0620
     11 C11        23.4461  -17.3919    5.5603 C.1     1  <0>        -0.0414
     12 C12        23.6791  -16.6684    4.6351 C.1     1  <0>        -0.0614
     13 C13        22.6479  -20.4993    8.0783 C.ar    1  <0>         0.1177
     14 C14        23.2099  -18.3399    6.4020 C.ar    1  <0>         0.1408
     15 C15        22.9353  -18.1055    7.7528 C.ar    1  <0>         0.1236
     16 C16        22.6608  -19.1947    8.5897 C.ar    1  <0>         0.0954
     17 C17        22.4507  -16.4542   10.8916 C.2     1  <0>         0.1750
     18 C18        22.4293  -15.0750   10.7168 C.2     1  <0>         0.1773
     19 C19        22.5775  -17.4349    9.7541 C.2     1  <0>         0.1578
     20 C20        21.6169  -23.8874    9.3265 C.3     1  <0>         0.0232
     21 C21        23.7195  -15.7513    3.4745 C.3     1  <0>         0.1212
     22 N1         22.4780  -14.4613    9.4981 N.pl3   1  <0>        -0.3395
     23 N2         23.1859  -19.6049    5.9312 N.ar    1  <0>        -0.2419
     24 N3         22.8843  -16.9928    8.5129 N.2     1  <0>        -0.2252
     25 N4         22.4115  -16.7869   12.2039 N.2     1  <0>        -0.0977
     26 N5         22.3247  -14.3979   11.8722 N.2     1  <0>        -0.0872
     27 N6         19.9489  -24.2428   11.1091 N.4     1  <0>         0.2272
     28 N7         22.4348  -18.7744    9.8533 N.pl3   1  <0>        -0.2797
     29 O1         23.1979  -16.4076    2.3151 O.3     1  <0>        -0.3771
     30 O2         22.3177  -15.4808   12.8181 O.3     1  <0>        -0.1041
     31 O3         22.3748  -21.6031    8.8570 O.3     1  <0>        -0.3408
     32 H1         22.9786  -20.7679   12.5891 H       1  <0>         0.0245
     33 H2         23.8262  -20.8374   11.0070 H       1  <0>         0.0245
     34 H3         23.9743  -19.3767   12.0421 H       1  <0>         0.0245
     35 H4         25.7472  -16.2822    2.9705 H       1  <0>         0.0267
     36 H5         25.2051  -14.6972    2.3226 H       1  <0>         0.0267
     37 H6         25.5941  -14.8685    4.0679 H       1  <0>         0.0267
     38 H7         21.8508  -14.8005    3.9843 H       1  <0>         0.0267
     39 H8         23.3078  -13.9985    4.6628 H       1  <0>         0.0267
     40 H9         22.9187  -13.8271    2.9174 H       1  <0>         0.0267
     41 H10        22.9253  -21.6505    6.2886 H       1  <0>         0.0857
     42 H11        22.0733  -26.1436   10.7635 H       1  <0>         0.0317
     43 H12        22.9969  -25.3749   12.1047 H       1  <0>         0.0317
     44 H13        22.8368  -23.1861   10.9589 H       1  <0>         0.0272
     45 H14        23.6240  -24.4130    9.9094 H       1  <0>         0.0272
     46 H15        20.4691  -25.7441   12.4507 H       1  <0>         0.0814
     47 H16        21.1365  -24.1017   12.8104 H       1  <0>         0.0814
     48 H17        20.5174  -22.3709   10.3739 H       1  <0>         0.0817
     49 H18        19.5324  -23.3824    9.2506 H       1  <0>         0.0817
     50 H19        21.4281  -20.3996   10.7217 H       1  <0>         0.0465
     51 H20        21.5772  -18.9289   11.7637 H       1  <0>         0.0465
     52 H21        23.0406  -23.2774    7.8383 H       1  <0>         0.0570
     53 H22        21.3377  -22.7805    7.5071 H       1  <0>         0.0570
     54 H23        21.4048  -24.8349    8.8096 H       1  <0>         0.0375
     55 H24        22.4234  -13.4704    9.6210 H       1  <0>         0.1438
     56 H25        23.3371  -14.6937    9.0422 H       1  <0>         0.1438
     57 H26        19.4705  -25.0161   10.6928 H       1  <0>         0.2013
     58 H27        19.3585  -23.6743   11.6819 H       1  <0>         0.2013
     59 H28        22.3001  -16.6724    2.4776 H       1  <0>         0.2114
@<TRIPOS>BOND
     1     1     9    1
     2     2    21    1
     3     3    21    1
     4     4    13   ar
     5     4    23   ar
     6     5     6    1
     7     5     7    1
     8     6    20    1
     9     7    27    1
    10     8    20    1
    11     8    27    1
    12     9    28    1
    13    10    20    1
    14    10    31    1
    15    11    12    3
    16    11    14    1
    17    12    21    1
    18    13    16   ar
    19    13    31    1
    20    14    15   ar
    21    14    23   ar
    22    15    16   ar
    23    15    24    1
    24    16    28    1
    25    17    18    1
    26    17    19    1
    27    17    25    2
    28    18    22    1
    29    18    26    2
    30    19    24    2
    31    19    28    1
    32    21    29    1
    33    25    30    1
    34    26    30    1
    35     1    32    1
    36     1    33    1
    37     1    34    1
    38     2    35    1
    39     2    36    1
    40     2    37    1
    41     3    38    1
    42     3    39    1
    43     3    40    1
    44     4    41    1
    45     5    42    1
    46     5    43    1
    47     6    44    1
    48     6    45    1
    49     7    46    1
    50     7    47    1
    51     8    48    1
    52     8    49    1
    53     9    50    1
    54     9    51    1
    55    10    52    1
    56    10    53    1
    57    20    54    1
    58    22    55    1
    59    22    56    1
    60    27    57    1
    61    27    58    1
    62    29    59    1
@<TRIPOS>SUBSTRUCTURE
     1 <0>         1 TEMP              0 ****  ****    0 ROOT

