
##########                                Name:        MRK_501_3F9M
##########                    Molecular_Weight:             349.413
##########                DOCK_Rotatable_Bonds:                   5
##########                       Formal_Charge:        -0.000200003
##########                     HBond_Acceptors:                   9
##########                        HBond_Donors:                   3
##########                         Heavy_Atoms:                  23
##########                            HA_RMSDs:               0.262
##########                            HA_RMSDh:               0.262
##########                            HA_RMSDm:               0.262
##########                          Grid_Score:          -54.167713
##########                     Grid_vdw_energy:          -52.669086
##########                      Grid_es_energy:           -1.498628
##########           Internal_energy_repulsive:           20.847303

@<TRIPOS>MOLECULE
MRK_501_3F9M
 35 37 1 0 0
SMALL
USER_CHARGES


@<TRIPOS>ATOM
      1 C1        -13.3099    6.8446   19.8085 C.3     1  <0>         0.0071
      2 C2        -10.9293    7.9498   22.3597 C.2     1  <0>         0.0442
      3 C3         -8.2767   -2.7726   23.0138 C.2     1  <0>         0.0368
      4 C4        -11.9212    8.2029   21.4258 C.2     1  <0>         0.0164
      5 C5         -7.6073   -3.2969   21.9205 C.2     1  <0>        -0.0030
      6 C6         -9.7052    2.6831   20.5249 C.ar    1  <0>        -0.0312
      7 C7         -8.3991    4.2563   18.6603 C.ar    1  <0>        -0.0039
      8 C8         -8.5707    2.2034   19.8764 C.ar    1  <0>         0.0589
      9 C9         -7.9124    2.9880   18.9298 C.ar    1  <0>         0.0396
     10 C10        -9.5362    4.7323   19.3034 C.ar    1  <0>         0.1389
     11 C11       -10.1904    3.9469   20.2472 C.ar    1  <0>         0.0513
     12 C12        -8.2413   -0.9813   21.7183 C.2     1  <0>         0.1646
     13 C13       -11.5212    6.1345   21.4506 C.2     1  <0>         0.1649
     14 C14        -8.1045    0.8365   20.2270 C.2     1  <0>         0.2515
     15 N1         -6.8072    2.5525   18.2694 N.pl3   1  <0>        -0.3573
     16 N2         -8.6211   -1.4617   22.8878 N.2     1  <0>        -0.2330
     17 N3        -10.6730    6.6173   22.3682 N.2     1  <0>        -0.2322
     18 N4         -8.4801    0.3157   21.3914 N.am    1  <0>        -0.2606
     19 N5        -12.2865    7.0460   20.8598 N.pl3   1  <0>        -0.2877
     20 O1         -7.4397    0.2154   19.4295 O.2     1  <0>        -0.2697
     21 F1         -9.9769    5.9732   18.9916 F       1  <0>        -0.2043
     22 S1         -7.4119   -2.1005   20.6859 S.3     1  <0>        -0.0605
     23 S2        -11.6188    4.4540   21.0366 S.3     1  <0>        -0.0512
     24 H1        -13.3732    5.7754   19.5577 H       1  <0>         0.0432
     25 H2        -14.2864    7.1932   20.1759 H       1  <0>         0.0432
     26 H3        -13.0306    7.4156   18.9109 H       1  <0>         0.0432
     27 H4        -10.4417    8.6894   22.9775 H       1  <0>         0.0843
     28 H5         -8.5065   -3.3556   23.8934 H       1  <0>         0.0835
     29 H6        -12.3323    9.1741   21.1929 H       1  <0>         0.0799
     30 H7         -7.2548   -4.3152   21.8483 H       1  <0>         0.0709
     31 H8        -10.2101    2.0628   21.2507 H       1  <0>         0.0638
     32 H9         -7.8899    4.8825   17.9428 H       1  <0>         0.0665
     33 H10        -6.5817    1.6260   18.5707 H       1  <0>         0.1423
     34 H11        -6.9869    2.5484   17.2857 H       1  <0>         0.1423
     35 H12        -8.9551    0.8994   22.0500 H       1  <0>         0.1571
@<TRIPOS>BOND
     1     1    19    1
     2     2     4    2
     3     2    17    1
     4     3     5    2
     5     3    16    1
     6     4    19    1
     7     5    22    1
     8     6     8   ar
     9     6    11   ar
    10     7     9   ar
    11     7    10   ar
    12     8     9   ar
    13     8    14    1
    14     9    15    1
    15    10    11   ar
    16    10    21    1
    17    11    23    1
    18    12    16    2
    19    12    18    1
    20    12    22    1
    21    13    17    2
    22    13    19    1
    23    13    23    1
    24    14    18   am
    25    14    20    2
    26     1    24    1
    27     1    25    1
    28     1    26    1
    29     2    27    1
    30     3    28    1
    31     4    29    1
    32     5    30    1
    33     6    31    1
    34     7    32    1
    35    15    33    1
    36    15    34    1
    37    18    35    1
@<TRIPOS>SUBSTRUCTURE
     1 <0>         1 TEMP              0 ****  ****    0 ROOT

