
##########                                Name:        F89_301_1SYN
##########                    Molecular_Weight:             498.495
##########                DOCK_Rotatable_Bonds:                   8
##########                       Formal_Charge:             -2.0002
##########                     HBond_Acceptors:                  10
##########                        HBond_Donors:                   2
##########                         Heavy_Atoms:                  37
##########                            HA_RMSDs:               6.281
##########                            HA_RMSDh:               6.181
##########                            HA_RMSDm:               5.028
##########                          Grid_Score:           11.742752
##########                     Grid_vdw_energy:          -46.209583
##########                      Grid_es_energy:           57.952335
##########           Internal_energy_repulsive:           17.406380

@<TRIPOS>MOLECULE
F89_301_1SYN
 59 63 1 0 0
SMALL
USER_CHARGES


@<TRIPOS>ATOM
      1 C1         18.1109   18.1835   31.4332 C.3     1  <0>        -0.0085
      2 C2         16.4459   12.0777   36.0401 C.ar    1  <0>        -0.0537
      3 C3         18.0287   12.9627   34.4623 C.ar    1  <0>        -0.0520
      4 C4         15.3518   12.2560   36.8887 C.ar    1  <0>        -0.0565
      5 C5         12.2190   10.5009   39.1245 C.ar    1  <0>        -0.0401
      6 C6         11.0320    9.7468   39.2168 C.ar    1  <0>        -0.0476
      7 C7         18.1929   13.7843   33.3531 C.ar    1  <0>        -0.0349
      8 C8         15.1285   14.5630   36.1254 C.ar    1  <0>        -0.0486
      9 C9         10.9154   12.5400   38.7838 C.ar    1  <0>        -0.0354
     10 C10         8.3623   12.1946   38.7872 C.3     1  <0>         0.0414
     11 C11         5.6624    9.6549   38.2181 C.3     1  <0>        -0.0239
     12 C12         4.2982    9.6230   37.5284 C.3     1  <0>        -0.0112
     13 C13        13.6031   13.7382   37.9093 C.3     1  <0>         0.0344
     14 C14        17.5466   17.2036   32.4118 C.2     1  <0>         0.0991
     15 C15        16.8757   13.1388   35.2330 C.ar    1  <0>        -0.0170
     16 C16        14.7149   13.5106   36.9627 C.ar    1  <0>        -0.0298
     17 C17        12.1625   11.8954   38.9199 C.ar    1  <0>         0.0277
     18 C18         9.7960   10.4147   39.1199 C.ar    1  <0>         0.0417
     19 C19        17.6158   15.0601   33.3657 C.ar    1  <0>         0.0783
     20 C20         9.7528   11.7727   38.8868 C.ar    1  <0>        -0.0162
     21 C21        16.1682   14.3781   35.1956 C.ar    1  <0>        -0.0034
     22 C22        16.5308   15.3601   34.2238 C.ar    1  <0>         0.0701
     23 C23        15.9025   16.6327   34.0143 C.2     1  <0>         0.2517
     24 C24         8.4454    9.9069   39.2632 C.2     1  <0>         0.2477
     25 C25         6.3779   11.0257   38.2307 C.3     1  <0>         0.0664
     26 C26         3.2620    8.7362   38.2302 C.2     1  <0>         0.0418
     27 C27         5.4442   12.1033   38.8262 C.2     1  <0>         0.0622
     28 N1         16.4869   17.5222   33.1774 N.am    1  <0>        -0.2699
     29 N2         18.0994   15.9851   32.5275 N.2     1  <0>        -0.2363
     30 N3         13.3955   12.6456   38.8542 N.pl3   1  <0>        -0.3397
     31 N4          7.6229   10.9526   39.0206 N.am    1  <0>        -0.2849
     32 O1          3.6113    7.6189   38.6333 O.co2   1  <0>        -0.5498
     33 O2          4.6779   11.8246   39.7601 O.co2   1  <0>        -0.5479
     34 O3         14.8073   16.9587   34.4700 O.2     1  <0>        -0.2697
     35 O4          8.1149    8.7824   39.6638 O.2     1  <0>        -0.2699
     36 O5          2.0885    9.1049   38.3254 O.co2   1  <0>        -0.5498
     37 O6          5.5349   13.2591   38.3994 O.co2   1  <0>        -0.5479
     38 H1         18.9641   17.7286   30.9086 H       1  <0>         0.0305
     39 H2         17.3362   18.4593   30.7026 H       1  <0>         0.0305
     40 H3         18.4476   19.0836   31.9686 H       1  <0>         0.0305
     41 H4         16.9579   11.1273   36.0061 H       1  <0>         0.0624
     42 H5         18.7651   12.2156   34.7194 H       1  <0>         0.0624
     43 H6         14.9936   11.4323   37.4884 H       1  <0>         0.0621
     44 H7         13.1764   10.0088   39.2109 H       1  <0>         0.0636
     45 H8         11.0695    8.6768   39.3591 H       1  <0>         0.0626
     46 H9         18.7558   13.4445   32.4964 H       1  <0>         0.0639
     47 H10        14.6418   15.5245   36.1972 H       1  <0>         0.0627
     48 H11        10.8605   13.6035   38.6040 H       1  <0>         0.0639
     49 H12         8.1157   12.9613   39.5365 H       1  <0>         0.0514
     50 H13         8.1372   12.6220   37.7990 H       1  <0>         0.0514
     51 H14         5.5092    9.3538   39.2649 H       1  <0>         0.0290
     52 H15         6.3162    8.9470   37.6876 H       1  <0>         0.0290
     53 H16         3.9056   10.6503   37.5057 H       1  <0>         0.0325
     54 H17         4.4424    9.2345   36.5094 H       1  <0>         0.0325
     55 H18        13.8281   14.6477   38.4855 H       1  <0>         0.0511
     56 H19        12.6793   13.8622   37.3250 H       1  <0>         0.0511
     57 H20         6.6318   11.2965   37.1952 H       1  <0>         0.0562
     58 H21        16.1175   18.4500   33.1264 H       1  <0>         0.1562
     59 H22        14.1026   11.9722   38.6383 H       1  <0>         0.1464
@<TRIPOS>BOND
     1     1    14    1
     2     2     4   ar
     3     2    15   ar
     4     3     7   ar
     5     3    15   ar
     6     4    16   ar
     7     5     6   ar
     8     5    17   ar
     9     6    18   ar
    10     7    19   ar
    11     8    16   ar
    12     8    21   ar
    13     9    17   ar
    14     9    20   ar
    15    10    20    1
    16    10    31    1
    17    11    12    1
    18    11    25    1
    19    12    26    1
    20    13    16    1
    21    13    30    1
    22    14    28    1
    23    14    29    2
    24    15    21   ar
    25    17    30    1
    26    18    20   ar
    27    18    24    1
    28    19    22   ar
    29    19    29    1
    30    21    22   ar
    31    22    23    1
    32    23    28   am
    33    23    34    2
    34    24    31   am
    35    24    35    2
    36    25    27    1
    37    25    31    1
    38    26    32    1
    39    26    36    2
    40    27    33    1
    41    27    37    2
    42     1    38    1
    43     1    39    1
    44     1    40    1
    45     2    41    1
    46     3    42    1
    47     4    43    1
    48     5    44    1
    49     6    45    1
    50     7    46    1
    51     8    47    1
    52     9    48    1
    53    10    49    1
    54    10    50    1
    55    11    51    1
    56    11    52    1
    57    12    53    1
    58    12    54    1
    59    13    55    1
    60    13    56    1
    61    25    57    1
    62    28    58    1
    63    30    59    1
@<TRIPOS>SUBSTRUCTURE
     1 <0>         1 TEMP              0 ****  ****    0 ROOT

