
##########                                Name:        F89_301_1SYN
##########                    Molecular_Weight:             498.495
##########                DOCK_Rotatable_Bonds:                   8
##########                       Formal_Charge:             -2.0002
##########                     HBond_Acceptors:                  10
##########                        HBond_Donors:                   2
##########                         Heavy_Atoms:                  37
##########                            HA_RMSDs:               1.664
##########                            HA_RMSDh:               1.664
##########                            HA_RMSDm:               1.487
##########                          Grid_Score:           19.166344
##########                     Grid_vdw_energy:          -58.053307
##########                      Grid_es_energy:           77.219650
##########           Internal_energy_repulsive:           20.683594

@<TRIPOS>MOLECULE
F89_301_1SYN
 59 63 1 0 0
SMALL
USER_CHARGES


@<TRIPOS>ATOM
      1 C1         12.3603   20.8370   31.0408 C.3     1  <0>        -0.0085
      2 C2         16.9281   14.4809   31.1359 C.ar    1  <0>        -0.0537
      3 C3         15.8355   16.0826   29.7153 C.ar    1  <0>        -0.0520
      4 C4         17.3570   14.0776   32.4018 C.ar    1  <0>        -0.0565
      5 C5         16.9149   10.8494   35.7660 C.ar    1  <0>        -0.0401
      6 C6         15.9505   10.0297   36.3859 C.ar    1  <0>        -0.0476
      7 C7         14.7419   16.9309   29.5863 C.ar    1  <0>        -0.0349
      8 C8         16.2799   16.0292   33.3947 C.ar    1  <0>        -0.0486
      9 C9         15.5371   12.8218   36.1957 C.ar    1  <0>        -0.0354
     10 C10        13.3219   12.3376   37.4188 C.3     1  <0>         0.0414
     11 C11        10.7508    9.9419   38.6950 C.3     1  <0>        -0.0239
     12 C12         9.3962    9.4098   38.2264 C.3     1  <0>        -0.0112
     13 C13        17.5770   14.4986   34.8657 C.3     1  <0>         0.0344
     14 C14        13.2242   19.6646   31.3804 C.2     1  <0>         0.0991
     15 C15        16.1727   15.6528   31.0021 C.ar    1  <0>        -0.0170
     16 C16        17.0678   14.8713   33.5294 C.ar    1  <0>        -0.0298
     17 C17        16.7156   12.2432   35.6803 C.ar    1  <0>         0.0277
     18 C18        14.7999   10.6313   36.9313 C.ar    1  <0>         0.0417
     19 C19        14.4112   17.7745   30.6539 C.ar    1  <0>         0.0783
     20 C20        14.5998   11.9899   36.8125 C.ar    1  <0>        -0.0162
     21 C21        15.7583   16.4043   32.1429 C.ar    1  <0>        -0.0034
     22 C22        14.8366   17.4820   31.9719 C.ar    1  <0>         0.0701
     23 C23        14.2813   18.3081   33.0050 C.2     1  <0>         0.2517
     24 C24        13.7087   10.0473   37.6866 C.2     1  <0>         0.2477
     25 C25        11.3610   11.0757   37.8384 C.3     1  <0>         0.0664
     26 C26         8.7103    8.4731   39.2288 C.2     1  <0>         0.0418
     27 C27        10.8325   12.4450   38.3213 C.2     1  <0>         0.0622
     28 N1         13.5683   19.4046   32.6549 N.am    1  <0>        -0.2699
     29 N2         13.6605   18.8540   30.4025 N.2     1  <0>        -0.2363
     30 N3         17.7331   13.0608   35.0611 N.pl3   1  <0>        -0.3397
     31 N4         12.8346   11.0520   37.9223 N.am    1  <0>        -0.2849
     32 O1          8.7392    7.2533   39.0183 O.co2   1  <0>        -0.5498
     33 O2         11.0452   12.8275   39.4813 O.co2   1  <0>        -0.5479
     34 O3         14.3220   18.0513   34.2074 O.2     1  <0>        -0.2697
     35 O4         13.6555    8.8972   38.1437 O.2     1  <0>        -0.2699
     36 O5          8.0838    8.9354   40.1858 O.co2   1  <0>        -0.5498
     37 O6         10.2611   13.1747   37.5043 O.co2   1  <0>        -0.5479
     38 H1         12.1942   20.8682   29.9538 H       1  <0>         0.0305
     39 H2         11.3934   20.7415   31.5566 H       1  <0>         0.0305
     40 H3         12.8576   21.7641   31.3623 H       1  <0>         0.0305
     41 H4         17.1773   13.8927   30.2651 H       1  <0>         0.0624
     42 H5         16.4040   15.7672   28.8529 H       1  <0>         0.0624
     43 H6         17.9104   13.1573   32.5168 H       1  <0>         0.0621
     44 H7         17.8108   10.4084   35.3547 H       1  <0>         0.0636
     45 H8         16.0913    8.9603   36.4417 H       1  <0>         0.0626
     46 H9         14.1572   16.9391   28.6783 H       1  <0>         0.0639
     47 H10        16.0729   16.6375   34.2627 H       1  <0>         0.0627
     48 H11        15.3632   13.8847   36.1153 H       1  <0>         0.0639
     49 H12        13.4428   13.0718   38.2289 H       1  <0>         0.0514
     50 H13        12.6295   12.7752   36.6846 H       1  <0>         0.0514
     51 H14        10.6158   10.3348   39.7134 H       1  <0>         0.0290
     52 H15        11.4586    9.1000   38.6793 H       1  <0>         0.0290
     53 H16         8.7330   10.2712   38.0588 H       1  <0>         0.0325
     54 H17         9.5563    8.8494   37.2935 H       1  <0>         0.0325
     55 H18        18.5629   14.9684   34.9970 H       1  <0>         0.0511
     56 H19        16.8631   14.8680   35.6167 H       1  <0>         0.0511
     57 H20        11.0640   10.9202   36.7908 H       1  <0>         0.0562
     58 H21        13.2872   20.0447   33.3699 H       1  <0>         0.1562
     59 H22        17.8541   12.6816   34.1438 H       1  <0>         0.1464
@<TRIPOS>BOND
     1     1    14    1
     2     2     4   ar
     3     2    15   ar
     4     3     7   ar
     5     3    15   ar
     6     4    16   ar
     7     5     6   ar
     8     5    17   ar
     9     6    18   ar
    10     7    19   ar
    11     8    16   ar
    12     8    21   ar
    13     9    17   ar
    14     9    20   ar
    15    10    20    1
    16    10    31    1
    17    11    12    1
    18    11    25    1
    19    12    26    1
    20    13    16    1
    21    13    30    1
    22    14    28    1
    23    14    29    2
    24    15    21   ar
    25    17    30    1
    26    18    20   ar
    27    18    24    1
    28    19    22   ar
    29    19    29    1
    30    21    22   ar
    31    22    23    1
    32    23    28   am
    33    23    34    2
    34    24    31   am
    35    24    35    2
    36    25    27    1
    37    25    31    1
    38    26    32    1
    39    26    36    2
    40    27    33    1
    41    27    37    2
    42     1    38    1
    43     1    39    1
    44     1    40    1
    45     2    41    1
    46     3    42    1
    47     4    43    1
    48     5    44    1
    49     6    45    1
    50     7    46    1
    51     8    47    1
    52     9    48    1
    53    10    49    1
    54    10    50    1
    55    11    51    1
    56    11    52    1
    57    12    53    1
    58    12    54    1
    59    13    55    1
    60    13    56    1
    61    25    57    1
    62    28    58    1
    63    30    59    1
@<TRIPOS>SUBSTRUCTURE
     1 <0>         1 TEMP              0 ****  ****    0 ROOT

