
##########                                Name:        F89_301_1SYN
##########                    Molecular_Weight:             498.495
##########                DOCK_Rotatable_Bonds:                   8
##########                       Formal_Charge:             -2.0002
##########                     HBond_Acceptors:                  10
##########                        HBond_Donors:                   2
##########                         Heavy_Atoms:                  37
##########                            HA_RMSDs:               5.365
##########                            HA_RMSDh:               5.310
##########                            HA_RMSDm:               4.116
##########                          Grid_Score:           15.062576
##########                     Grid_vdw_energy:          -44.003265
##########                      Grid_es_energy:           59.065842
##########           Internal_energy_repulsive:           16.259600

@<TRIPOS>MOLECULE
F89_301_1SYN
 59 63 1 0 0
SMALL
USER_CHARGES


@<TRIPOS>ATOM
      1 C1         16.5547   19.7976   31.7828 C.3     1  <0>        -0.0085
      2 C2         16.9976   13.0409   35.7106 C.ar    1  <0>        -0.0537
      3 C3         18.2570   14.6624   34.4607 C.ar    1  <0>        -0.0520
      4 C4         15.8313   12.6669   36.3806 C.ar    1  <0>        -0.0565
      5 C5         13.0598    9.7153   38.3375 C.ar    1  <0>        -0.0401
      6 C6         12.0971    8.7119   38.5671 C.ar    1  <0>        -0.0476
      7 C7         18.2040   15.6050   33.4404 C.ar    1  <0>        -0.0349
      8 C8         14.7733   14.7650   35.7222 C.ar    1  <0>        -0.0486
      9 C9         11.3334   11.4354   38.5211 C.ar    1  <0>        -0.0354
     10 C10         8.9652   10.5338   38.9862 C.3     1  <0>         0.0414
     11 C11         6.7237    7.5277   38.7638 C.3     1  <0>        -0.0239
     12 C12         7.0403    6.6717   37.5371 C.3     1  <0>        -0.0112
     13 C13        13.5153   13.1970   37.1879 C.3     1  <0>         0.0344
     14 C14        16.3279   18.5666   32.6011 C.2     1  <0>         0.0991
     15 C15        17.0482   14.2720   35.0442 C.ar    1  <0>        -0.0170
     16 C16        14.7301   13.5448   36.4215 C.ar    1  <0>        -0.0298
     17 C17        12.6827   11.0745   38.3254 C.ar    1  <0>         0.0277
     18 C18        10.7623    9.0949   38.8017 C.ar    1  <0>         0.0417
     19 C19        17.1557   16.5333   33.4316 C.ar    1  <0>         0.0783
     20 C20        10.3990   10.4238   38.7547 C.ar    1  <0>        -0.0162
     21 C21        15.9033   15.1209   34.9632 C.ar    1  <0>        -0.0034
     22 C22        15.9463   16.2725   34.1192 C.ar    1  <0>         0.0701
     23 C23        14.8806   17.2033   33.8831 C.2     1  <0>         0.2517
     24 C24         9.6056    8.2906   39.1443 C.2     1  <0>         0.2477
     25 C25         7.1810    9.0031   38.6907 C.3     1  <0>         0.0664
     26 C26         6.4687    5.2498   37.6009 C.2     1  <0>         0.0418
     27 C27         6.2239    9.8940   39.5141 C.2     1  <0>         0.0622
     28 N1         15.1452   18.3436   33.2027 N.am    1  <0>        -0.2699
     29 N2         17.3148   17.6656   32.7355 N.2     1  <0>        -0.2363
     30 N3         13.6959   12.0820   38.1119 N.pl3   1  <0>        -0.3397
     31 N4          8.5582    9.1441   39.2030 N.am    1  <0>        -0.2849
     32 O1          7.2297    4.3155   37.8854 O.co2   1  <0>        -0.5498
     33 O2          5.8711    9.5530   40.6528 O.co2   1  <0>        -0.5479
     34 O3         13.7012   17.0092   34.1741 O.2     1  <0>        -0.2697
     35 O4          9.6025    7.0922   39.4576 O.2     1  <0>        -0.2699
     36 O5          5.2899    5.0381   37.3049 O.co2   1  <0>        -0.5498
     37 O6          5.8818   10.9823   39.0400 O.co2   1  <0>        -0.5479
     38 H1         17.5773   19.7860   31.3777 H       1  <0>         0.0305
     39 H2         15.8323   19.8247   30.9536 H       1  <0>         0.0305
     40 H3         16.4211   20.6877   32.4151 H       1  <0>         0.0305
     41 H4         17.8556   12.3851   35.7061 H       1  <0>         0.0624
     42 H5         19.1977   14.2469   34.7905 H       1  <0>         0.0624
     43 H6         15.7731   11.7046   36.8675 H       1  <0>         0.0621
     44 H7         14.0911    9.4422   38.1700 H       1  <0>         0.0636
     45 H8         12.3777    7.6690   38.5633 H       1  <0>         0.0626
     46 H9         18.9584   15.6211   32.6678 H       1  <0>         0.0639
     47 H10        13.9288   15.4366   35.7687 H       1  <0>         0.0627
     48 H11        11.0292   12.4714   38.4910 H       1  <0>         0.0639
     49 H12         8.7418   11.1637   39.8599 H       1  <0>         0.0514
     50 H13         8.4474   10.9790   38.1239 H       1  <0>         0.0514
     51 H14         5.6312    7.5275   38.8923 H       1  <0>         0.0290
     52 H15         7.2300    7.0683   39.6255 H       1  <0>         0.0290
     53 H16         6.6110    7.1704   36.6556 H       1  <0>         0.0325
     54 H17         8.1342    6.5939   37.4511 H       1  <0>         0.0325
     55 H18        13.2190   14.0794   37.7739 H       1  <0>         0.0511
     56 H19        12.7286   12.9199   36.4707 H       1  <0>         0.0511
     57 H20         7.1608    9.3231   37.6386 H       1  <0>         0.0562
     58 H21        14.4356   19.0457   33.1451 H       1  <0>         0.1562
     59 H22        14.4946   11.5850   37.7727 H       1  <0>         0.1464
@<TRIPOS>BOND
     1     1    14    1
     2     2     4   ar
     3     2    15   ar
     4     3     7   ar
     5     3    15   ar
     6     4    16   ar
     7     5     6   ar
     8     5    17   ar
     9     6    18   ar
    10     7    19   ar
    11     8    16   ar
    12     8    21   ar
    13     9    17   ar
    14     9    20   ar
    15    10    20    1
    16    10    31    1
    17    11    12    1
    18    11    25    1
    19    12    26    1
    20    13    16    1
    21    13    30    1
    22    14    28    1
    23    14    29    2
    24    15    21   ar
    25    17    30    1
    26    18    20   ar
    27    18    24    1
    28    19    22   ar
    29    19    29    1
    30    21    22   ar
    31    22    23    1
    32    23    28   am
    33    23    34    2
    34    24    31   am
    35    24    35    2
    36    25    27    1
    37    25    31    1
    38    26    32    1
    39    26    36    2
    40    27    33    1
    41    27    37    2
    42     1    38    1
    43     1    39    1
    44     1    40    1
    45     2    41    1
    46     3    42    1
    47     4    43    1
    48     5    44    1
    49     6    45    1
    50     7    46    1
    51     8    47    1
    52     9    48    1
    53    10    49    1
    54    10    50    1
    55    11    51    1
    56    11    52    1
    57    12    53    1
    58    12    54    1
    59    13    55    1
    60    13    56    1
    61    25    57    1
    62    28    58    1
    63    30    59    1
@<TRIPOS>SUBSTRUCTURE
     1 <0>         1 TEMP              0 ****  ****    0 ROOT

