
##########                                Name:        F89_301_1SYN
##########                    Molecular_Weight:             498.495
##########                DOCK_Rotatable_Bonds:                   8
##########                       Formal_Charge:             -2.0002
##########                     HBond_Acceptors:                  10
##########                        HBond_Donors:                   2
##########                         Heavy_Atoms:                  37
##########                            HA_RMSDs:               6.365
##########                            HA_RMSDh:               6.226
##########                            HA_RMSDm:               5.189
##########                          Grid_Score:           17.011532
##########                     Grid_vdw_energy:          -48.843937
##########                      Grid_es_energy:           65.855469
##########           Internal_energy_repulsive:           11.341419

@<TRIPOS>MOLECULE
F89_301_1SYN
 59 63 1 0 0
SMALL
USER_CHARGES


@<TRIPOS>ATOM
      1 C1         15.8782   18.6042   33.0014 C.3     1  <0>        -0.0085
      2 C2         17.5024   11.3727   35.5199 C.ar    1  <0>        -0.0537
      3 C3         18.4031   13.3053   34.4103 C.ar    1  <0>        -0.0520
      4 C4         16.4980   10.7695   36.2792 C.ar    1  <0>        -0.0565
      5 C5         11.1565    9.2838   37.6803 C.ar    1  <0>        -0.0401
      6 C6          9.8330    9.3627   38.1580 C.ar    1  <0>        -0.0476
      7 C7         18.1060   14.3940   33.5987 C.ar    1  <0>        -0.0349
      8 C8         15.1833   12.8231   36.1818 C.ar    1  <0>        -0.0486
      9 C9         11.1625   11.6903   37.2536 C.ar    1  <0>        -0.0354
     10 C10         8.9661   12.8930   37.8594 C.3     1  <0>         0.0414
     11 C11         5.8446   12.2589   36.8922 C.3     1  <0>        -0.0239
     12 C12         5.5531   12.9841   35.5781 C.3     1  <0>        -0.0112
     13 C13        14.3159   10.9069   37.5106 C.3     1  <0>         0.0344
     14 C14        15.8892   17.2367   33.6065 C.2     1  <0>         0.0991
     15 C15        17.3438   12.6960   35.0891 C.ar    1  <0>        -0.0170
     16 C16        15.3539   11.5056   36.6455 C.ar    1  <0>        -0.0298
     17 C17        11.8249   10.4452   37.2395 C.ar    1  <0>         0.0277
     18 C18         9.2032   10.6215   38.2032 C.ar    1  <0>         0.0417
     19 C19        17.0015   15.1933   33.9178 C.ar    1  <0>         0.0783
     20 C20         9.8538   11.7446   37.7390 C.ar    1  <0>        -0.0162
     21 C21        16.1385   13.4193   35.3382 C.ar    1  <0>        -0.0034
     22 C22        15.9488   14.6937   34.7214 C.ar    1  <0>         0.0701
     23 C23        14.7889   15.5318   34.8229 C.2     1  <0>         0.2517
     24 C24         7.9013   10.9972   38.7192 C.2     1  <0>         0.2477
     25 C25         6.6062   13.0797   37.9588 C.3     1  <0>         0.0664
     26 C26         4.3914   12.3844   34.7760 C.2     1  <0>         0.0418
     27 C27         5.6596   13.4339   39.1277 C.2     1  <0>         0.0622
     28 N1         14.8454   16.7913   34.3294 N.am    1  <0>        -0.2699
     29 N2         16.9522   16.4365   33.4237 N.2     1  <0>        -0.2363
     30 N3         13.1897   10.3370   36.7782 N.pl3   1  <0>        -0.3397
     31 N4          7.7644   12.3190   38.4678 N.am    1  <0>        -0.2849
     32 O1          4.4047   11.1717   34.5267 O.co2   1  <0>        -0.5498
     33 O2          5.7098   12.7993   40.1917 O.co2   1  <0>        -0.5479
     34 O3         13.6940   15.1669   35.2487 O.2     1  <0>        -0.2697
     35 O4          7.1324   10.2858   39.3803 O.2     1  <0>        -0.2699
     36 O5          3.5005   13.1123   34.3304 O.co2   1  <0>        -0.5498
     37 O6          4.9090   14.4068   39.0007 O.co2   1  <0>        -0.5479
     38 H1         16.8161   18.7697   32.4509 H       1  <0>         0.0305
     39 H2         15.0271   18.6922   32.3101 H       1  <0>         0.0305
     40 H3         15.7832   19.3567   33.7981 H       1  <0>         0.0305
     41 H4         18.3963   10.8222   35.2663 H       1  <0>         0.0624
     42 H5         19.4155   12.9433   34.5127 H       1  <0>         0.0624
     43 H6         16.5980    9.7388   36.5858 H       1  <0>         0.0621
     44 H7         11.6615    8.3296   37.6515 H       1  <0>         0.0636
     45 H8          9.3116    8.4746   38.4834 H       1  <0>         0.0626
     46 H9         18.7164   14.6194   32.7368 H       1  <0>         0.0639
     47 H10        14.3086   13.3834   36.4771 H       1  <0>         0.0627
     48 H11        11.6562   12.5822   36.8971 H       1  <0>         0.0639
     49 H12         9.4041   13.6808   38.4898 H       1  <0>         0.0514
     50 H13         8.7497   13.3438   36.8796 H       1  <0>         0.0514
     51 H14         4.8780   11.9678   37.3290 H       1  <0>         0.0290
     52 H15         6.4594   11.3787   36.6533 H       1  <0>         0.0290
     53 H16         5.2982   14.0274   35.8158 H       1  <0>         0.0325
     54 H17         6.4579   12.9326   34.9545 H       1  <0>         0.0325
     55 H18        14.7840   10.1012   38.0950 H       1  <0>         0.0511
     56 H19        13.9274   11.6961   38.1711 H       1  <0>         0.0511
     57 H20         6.9699   14.0068   37.4918 H       1  <0>         0.0562
     58 H21        14.0833   17.4134   34.5087 H       1  <0>         0.1562
     59 H22        13.2023   10.7853   35.8844 H       1  <0>         0.1464
@<TRIPOS>BOND
     1     1    14    1
     2     2     4   ar
     3     2    15   ar
     4     3     7   ar
     5     3    15   ar
     6     4    16   ar
     7     5     6   ar
     8     5    17   ar
     9     6    18   ar
    10     7    19   ar
    11     8    16   ar
    12     8    21   ar
    13     9    17   ar
    14     9    20   ar
    15    10    20    1
    16    10    31    1
    17    11    12    1
    18    11    25    1
    19    12    26    1
    20    13    16    1
    21    13    30    1
    22    14    28    1
    23    14    29    2
    24    15    21   ar
    25    17    30    1
    26    18    20   ar
    27    18    24    1
    28    19    22   ar
    29    19    29    1
    30    21    22   ar
    31    22    23    1
    32    23    28   am
    33    23    34    2
    34    24    31   am
    35    24    35    2
    36    25    27    1
    37    25    31    1
    38    26    32    1
    39    26    36    2
    40    27    33    1
    41    27    37    2
    42     1    38    1
    43     1    39    1
    44     1    40    1
    45     2    41    1
    46     3    42    1
    47     4    43    1
    48     5    44    1
    49     6    45    1
    50     7    46    1
    51     8    47    1
    52     9    48    1
    53    10    49    1
    54    10    50    1
    55    11    51    1
    56    11    52    1
    57    12    53    1
    58    12    54    1
    59    13    55    1
    60    13    56    1
    61    25    57    1
    62    28    58    1
    63    30    59    1
@<TRIPOS>SUBSTRUCTURE
     1 <0>         1 TEMP              0 ****  ****    0 ROOT

