
##########                                Name:        F89_301_1SYN
##########                    Molecular_Weight:             498.495
##########                DOCK_Rotatable_Bonds:                   8
##########                       Formal_Charge:             -2.0002
##########                     HBond_Acceptors:                  10
##########                        HBond_Donors:                   2
##########                         Heavy_Atoms:                  37
##########                            HA_RMSDs:               5.447
##########                            HA_RMSDh:               5.386
##########                            HA_RMSDm:               4.456
##########                          Grid_Score:           15.570827
##########                     Grid_vdw_energy:          -47.777752
##########                      Grid_es_energy:           63.348579
##########           Internal_energy_repulsive:           18.523075

@<TRIPOS>MOLECULE
F89_301_1SYN
 59 63 1 0 0
SMALL
USER_CHARGES


@<TRIPOS>ATOM
      1 C1         17.0464   20.0871   31.7058 C.3     1  <0>        -0.0085
      2 C2         17.5135   12.9450   34.8755 C.ar    1  <0>        -0.0537
      3 C3         18.7456   14.6576   33.7237 C.ar    1  <0>        -0.0520
      4 C4         16.3785   12.5312   35.5753 C.ar    1  <0>        -0.0565
      5 C5         12.2588    9.7482   36.9521 C.ar    1  <0>        -0.0401
      6 C6         10.9931    9.2391   37.3056 C.ar    1  <0>        -0.0476
      7 C7         18.6608   15.7036   32.8121 C.ar    1  <0>        -0.0349
      8 C8         15.3489   14.7126   35.2061 C.ar    1  <0>        -0.0486
      9 C9         11.3499   12.0164   36.9024 C.ar    1  <0>        -0.0354
     10 C10         8.8421   12.1802   37.4694 C.3     1  <0>         0.0414
     11 C11         5.6028   10.2847   37.6118 C.3     1  <0>        -0.0239
     12 C12         5.5492    9.2169   36.5189 C.3     1  <0>        -0.0112
     13 C13        14.1329   13.0303   36.5776 C.3     1  <0>         0.0344
     14 C14        16.8309   18.7827   32.4046 C.2     1  <0>         0.0991
     15 C15        17.5624   14.2378   34.3387 C.ar    1  <0>        -0.0170
     16 C16        15.3097   13.4269   35.7764 C.ar    1  <0>        -0.0298
     17 C17        12.4411   11.1339   36.7617 C.ar    1  <0>         0.0277
     18 C18         9.9256   10.1406   37.4820 C.ar    1  <0>         0.0417
     19 C19        17.6433   16.6532   32.9658 C.ar    1  <0>         0.0783
     20 C20        10.1071   11.4891   37.2610 C.ar    1  <0>        -0.0162
     21 C21        16.4417   15.1185   34.4184 C.ar    1  <0>        -0.0034
     22 C22        16.4698   16.3513   33.6975 C.ar    1  <0>         0.0701
     23 C23        15.4214   17.3279   33.6269 C.2     1  <0>         0.2517
     24 C24         8.5643    9.9029   37.9207 C.2     1  <0>         0.2477
     25 C25         6.5907   11.4490   37.3669 C.3     1  <0>         0.0664
     26 C26         4.5505    8.0862   36.7962 C.2     1  <0>         0.0418
     27 C27         6.0881   12.7261   38.0768 C.2     1  <0>         0.0622
     28 N1         15.6801   18.5267   33.0531 N.am    1  <0>        -0.2699
     29 N2         17.7955   17.8484   32.3824 N.2     1  <0>        -0.2363
     30 N3         13.7557   11.6289   36.4239 N.pl3   1  <0>        -0.3397
     31 N4          7.9363   11.0992   37.8630 N.am    1  <0>        -0.2849
     32 O1          4.9826    6.9365   36.9524 O.co2   1  <0>        -0.5498
     33 O2          5.5048   12.6505   39.1682 O.co2   1  <0>        -0.5479
     34 O3         14.2561   17.1334   33.9699 O.2     1  <0>        -0.2697
     35 O4          8.1090    8.8494   38.3871 O.2     1  <0>        -0.2699
     36 O5          3.3375    8.3113   36.7924 O.co2   1  <0>        -0.5498
     37 O6          6.3471   13.8212   37.5671 O.co2   1  <0>        -0.5479
     38 H1         18.0419   20.0930   31.2380 H       1  <0>         0.0305
     39 H2         16.2766   20.2194   30.9311 H       1  <0>         0.0305
     40 H3         16.9788   20.9086   32.4342 H       1  <0>         0.0305
     41 H4         18.3489   12.2722   34.7490 H       1  <0>         0.0624
     42 H5         19.6910   14.1865   33.9488 H       1  <0>         0.0624
     43 H6         16.3198   11.5247   35.9624 H       1  <0>         0.0621
     44 H7         13.0932    9.0742   36.8264 H       1  <0>         0.0636
     45 H8         10.8445    8.1777   37.4387 H       1  <0>         0.0626
     46 H9         19.3675   15.7824   31.9994 H       1  <0>         0.0639
     47 H10        14.5301   15.3962   35.3752 H       1  <0>         0.0627
     48 H11        11.4724   13.0766   36.7365 H       1  <0>         0.0639
     49 H12         8.9228   12.9481   38.2528 H       1  <0>         0.0514
     50 H13         8.4990   12.6846   36.5542 H       1  <0>         0.0514
     51 H14         4.5961   10.7195   37.6971 H       1  <0>         0.0290
     52 H15         5.9059    9.7864   38.5444 H       1  <0>         0.0290
     53 H16         5.2538    9.7074   35.5797 H       1  <0>         0.0325
     54 H17         6.5508    8.7707   36.4313 H       1  <0>         0.0325
     55 H18        14.3692   13.2044   37.6377 H       1  <0>         0.0511
     56 H19        13.2807   13.6485   36.2588 H       1  <0>         0.0511
     57 H20         6.6503   11.6342   36.2843 H       1  <0>         0.0562
     58 H21        14.9905   19.2483   33.1135 H       1  <0>         0.1562
     59 H22        13.8703   11.4301   35.4506 H       1  <0>         0.1464
@<TRIPOS>BOND
     1     1    14    1
     2     2     4   ar
     3     2    15   ar
     4     3     7   ar
     5     3    15   ar
     6     4    16   ar
     7     5     6   ar
     8     5    17   ar
     9     6    18   ar
    10     7    19   ar
    11     8    16   ar
    12     8    21   ar
    13     9    17   ar
    14     9    20   ar
    15    10    20    1
    16    10    31    1
    17    11    12    1
    18    11    25    1
    19    12    26    1
    20    13    16    1
    21    13    30    1
    22    14    28    1
    23    14    29    2
    24    15    21   ar
    25    17    30    1
    26    18    20   ar
    27    18    24    1
    28    19    22   ar
    29    19    29    1
    30    21    22   ar
    31    22    23    1
    32    23    28   am
    33    23    34    2
    34    24    31   am
    35    24    35    2
    36    25    27    1
    37    25    31    1
    38    26    32    1
    39    26    36    2
    40    27    33    1
    41    27    37    2
    42     1    38    1
    43     1    39    1
    44     1    40    1
    45     2    41    1
    46     3    42    1
    47     4    43    1
    48     5    44    1
    49     6    45    1
    50     7    46    1
    51     8    47    1
    52     9    48    1
    53    10    49    1
    54    10    50    1
    55    11    51    1
    56    11    52    1
    57    12    53    1
    58    12    54    1
    59    13    55    1
    60    13    56    1
    61    25    57    1
    62    28    58    1
    63    30    59    1
@<TRIPOS>SUBSTRUCTURE
     1 <0>         1 TEMP              0 ****  ****    0 ROOT

