
##########                                Name:        F89_301_1SYN
##########                    Molecular_Weight:             498.495
##########                DOCK_Rotatable_Bonds:                   8
##########                       Formal_Charge:             -2.0002
##########                     HBond_Acceptors:                  10
##########                        HBond_Donors:                   2
##########                         Heavy_Atoms:                  37
##########                            HA_RMSDs:               5.333
##########                            HA_RMSDh:               5.279
##########                            HA_RMSDm:               4.132
##########                          Grid_Score:           15.986618
##########                     Grid_vdw_energy:          -45.408356
##########                      Grid_es_energy:           61.394974
##########           Internal_energy_repulsive:           13.451867

@<TRIPOS>MOLECULE
F89_301_1SYN
 59 63 1 0 0
SMALL
USER_CHARGES


@<TRIPOS>ATOM
      1 C1         16.5847   20.0883   31.7982 C.3     1  <0>        -0.0085
      2 C2         16.8930   13.1372   35.3847 C.ar    1  <0>        -0.0537
      3 C3         18.1968   14.8258   34.2772 C.ar    1  <0>        -0.0520
      4 C4         15.7007   12.7249   35.9825 C.ar    1  <0>        -0.0565
      5 C5         13.0172   10.3631   39.1166 C.ar    1  <0>        -0.0401
      6 C6         12.0819    9.4731   39.6815 C.ar    1  <0>        -0.0476
      7 C7         18.1832   15.8202   33.3060 C.ar    1  <0>        -0.0349
      8 C8         14.6609   14.8511   35.3885 C.ar    1  <0>        -0.0486
      9 C9         11.2062   11.8496   38.4212 C.ar    1  <0>        -0.0354
     10 C10         8.8455   11.0330   39.0520 C.3     1  <0>         0.0414
     11 C11         7.3188    8.0369   38.5512 C.3     1  <0>        -0.0239
     12 C12         7.1670    8.1116   37.0316 C.3     1  <0>        -0.0112
     13 C13        13.3488   13.2047   36.7141 C.3     1  <0>         0.0344
     14 C14        16.3292   18.8156   32.5406 C.2     1  <0>         0.0991
     15 C15        16.9658   14.4015   34.7862 C.ar    1  <0>        -0.0170
     16 C16        14.5939   13.5959   36.0208 C.ar    1  <0>        -0.0298
     17 C17        12.5832   11.5540   38.4977 C.ar    1  <0>         0.0277
     18 C18        10.7144    9.8062   39.6316 C.ar    1  <0>         0.0417
     19 C19        17.1312   16.7442   33.2996 C.ar    1  <0>         0.0783
     20 C20        10.2989   10.9562   38.9953 C.ar    1  <0>        -0.0162
     21 C21        15.8209   15.2498   34.6993 C.ar    1  <0>        -0.0034
     22 C22        15.8944   16.4440   33.9191 C.ar    1  <0>         0.0701
     23 C23        14.8348   17.3825   33.6853 C.2     1  <0>         0.2517
     24 C24         9.5658    9.1273   40.1992 C.2     1  <0>         0.2477
     25 C25         7.1706    9.3769   39.3087 C.3     1  <0>         0.0664
     26 C26         6.9351    6.7534   36.3577 C.2     1  <0>         0.0418
     27 C27         6.1880    9.2101   40.4895 C.2     1  <0>         0.0622
     28 N1         15.1226   18.5576   33.0773 N.am    1  <0>        -0.2699
     29 N2         17.3142   17.9119   32.6711 N.2     1  <0>        -0.2363
     30 N3         13.5670   12.4588   37.9493 N.pl3   1  <0>        -0.3397
     31 N4          8.4809    9.8352   39.8110 N.am    1  <0>        -0.2849
     32 O1          7.6803    5.8092   36.6513 O.co2   1  <0>        -0.5498
     33 O2          6.5338    8.6038   41.5142 O.co2   1  <0>        -0.5479
     34 O3         13.6450   17.1697   33.9138 O.2     1  <0>        -0.2697
     35 O4          9.5842    8.1765   40.9931 O.2     1  <0>        -0.2699
     36 O5          6.0676    6.6285   35.4895 O.co2   1  <0>        -0.5498
     37 O6          5.0829    9.7573   40.4149 O.co2   1  <0>        -0.5479
     38 H1         17.6240   20.1011   31.4382 H       1  <0>         0.0305
     39 H2         15.8990   20.1564   30.9407 H       1  <0>         0.0305
     40 H3         16.4187   20.9438   32.4695 H       1  <0>         0.0305
     41 H4         17.7540   12.4852   35.3837 H       1  <0>         0.0624
     42 H5         19.1245   14.3966   34.6259 H       1  <0>         0.0624
     43 H6         15.6266   11.7383   36.4157 H       1  <0>         0.0621
     44 H7         14.0715   10.1322   39.1578 H       1  <0>         0.0636
     45 H8         12.4076    8.5530   40.1440 H       1  <0>         0.0626
     46 H9         18.9704   15.8790   32.5691 H       1  <0>         0.0639
     47 H10        13.8115   15.5167   35.4328 H       1  <0>         0.0627
     48 H11        10.8609   12.7471   37.9295 H       1  <0>         0.0639
     49 H12         8.5065   11.9511   39.5541 H       1  <0>         0.0514
     50 H13         8.3989   11.0287   38.0468 H       1  <0>         0.0514
     51 H14         6.5391    7.3583   38.9270 H       1  <0>         0.0290
     52 H15         8.3260    7.6487   38.7628 H       1  <0>         0.0290
     53 H16         6.3017    8.7530   36.8084 H       1  <0>         0.0325
     54 H17         8.0918    8.5413   36.6191 H       1  <0>         0.0325
     55 H18        12.7964   14.1224   36.9643 H       1  <0>         0.0511
     56 H19        12.7653   12.5690   36.0319 H       1  <0>         0.0511
     57 H20         6.7763   10.1305   38.6111 H       1  <0>         0.0562
     58 H21        14.4123   19.2595   33.0254 H       1  <0>         0.1562
     59 H22        14.3761   11.8966   37.7785 H       1  <0>         0.1464
@<TRIPOS>BOND
     1     1    14    1
     2     2     4   ar
     3     2    15   ar
     4     3     7   ar
     5     3    15   ar
     6     4    16   ar
     7     5     6   ar
     8     5    17   ar
     9     6    18   ar
    10     7    19   ar
    11     8    16   ar
    12     8    21   ar
    13     9    17   ar
    14     9    20   ar
    15    10    20    1
    16    10    31    1
    17    11    12    1
    18    11    25    1
    19    12    26    1
    20    13    16    1
    21    13    30    1
    22    14    28    1
    23    14    29    2
    24    15    21   ar
    25    17    30    1
    26    18    20   ar
    27    18    24    1
    28    19    22   ar
    29    19    29    1
    30    21    22   ar
    31    22    23    1
    32    23    28   am
    33    23    34    2
    34    24    31   am
    35    24    35    2
    36    25    27    1
    37    25    31    1
    38    26    32    1
    39    26    36    2
    40    27    33    1
    41    27    37    2
    42     1    38    1
    43     1    39    1
    44     1    40    1
    45     2    41    1
    46     3    42    1
    47     4    43    1
    48     5    44    1
    49     6    45    1
    50     7    46    1
    51     8    47    1
    52     9    48    1
    53    10    49    1
    54    10    50    1
    55    11    51    1
    56    11    52    1
    57    12    53    1
    58    12    54    1
    59    13    55    1
    60    13    56    1
    61    25    57    1
    62    28    58    1
    63    30    59    1
@<TRIPOS>SUBSTRUCTURE
     1 <0>         1 TEMP              0 ****  ****    0 ROOT

