
##########                                Name:        F89_301_1SYN
##########                    Molecular_Weight:             498.495
##########                DOCK_Rotatable_Bonds:                   8
##########                       Formal_Charge:             -2.0002
##########                     HBond_Acceptors:                  10
##########                        HBond_Donors:                   2
##########                         Heavy_Atoms:                  37
##########                            HA_RMSDs:               6.344
##########                            HA_RMSDh:               6.244
##########                            HA_RMSDm:               5.301
##########                          Grid_Score:           12.669987
##########                     Grid_vdw_energy:          -47.842350
##########                      Grid_es_energy:           60.512337
##########           Internal_energy_repulsive:           14.129411

@<TRIPOS>MOLECULE
F89_301_1SYN
 59 63 1 0 0
SMALL
USER_CHARGES


@<TRIPOS>ATOM
      1 C1         17.4271   19.2142   31.7288 C.3     1  <0>        -0.0085
      2 C2         17.1236   12.3487   35.4769 C.ar    1  <0>        -0.0537
      3 C3         18.5680   13.8834   34.3211 C.ar    1  <0>        -0.0520
      4 C4         15.9036   12.0623   36.0923 C.ar    1  <0>        -0.0565
      5 C5         11.2484    9.8318   36.3479 C.ar    1  <0>        -0.0401
      6 C6          9.8955    9.4689   36.5028 C.ar    1  <0>        -0.0476
      7 C7         18.6377   14.8522   33.3267 C.ar    1  <0>        -0.0349
      8 C8         15.0595   14.2615   35.4550 C.ar    1  <0>        -0.0486
      9 C9         10.8085   11.9867   37.4137 C.ar    1  <0>        -0.0354
     10 C10         8.3645   12.3422   38.1470 C.3     1  <0>         0.0414
     11 C11         4.8405   11.2698   37.4566 C.3     1  <0>        -0.0239
     12 C12         3.5657   11.9817   37.0029 C.3     1  <0>        -0.0112
     13 C13        13.6127   12.7744   36.8279 C.3     1  <0>         0.0344
     14 C14        17.0617   17.9880   32.5028 C.2     1  <0>         0.0991
     15 C15        17.3077   13.5867   34.8481 C.ar    1  <0>        -0.0170
     16 C16        14.8825   13.0327   36.1172 C.ar    1  <0>        -0.0298
     17 C17        11.7078   11.0822   36.8116 C.ar    1  <0>         0.0277
     18 C18         9.0220   10.3686   37.1437 C.ar    1  <0>         0.0417
     19 C19        17.6756   15.8693   33.3054 C.ar    1  <0>         0.0783
     20 C20         9.4743   11.6013   37.5632 C.ar    1  <0>        -0.0162
     21 C21        16.2453   14.5351   34.7488 C.ar    1  <0>        -0.0034
     22 C22        16.4218   15.6992   33.9400 C.ar    1  <0>         0.0701
     23 C23        15.4515   16.7261   33.6911 C.2     1  <0>         0.2517
     24 C24         7.6261   10.2184   37.5058 C.2     1  <0>         0.2477
     25 C25         6.0179   12.1888   37.8573 C.3     1  <0>         0.0664
     26 C26         2.5418   11.0621   36.3257 C.2     1  <0>         0.0418
     27 C27         5.6761   12.9475   39.1593 C.2     1  <0>         0.0622
     28 N1         15.8412   17.8552   33.0535 N.am    1  <0>        -0.2699
     29 N2         17.9601   17.0003   32.6481 N.2     1  <0>        -0.2363
     30 N3         13.1053   11.4163   36.6611 N.pl3   1  <0>        -0.3397
     31 N4          7.2496   11.3981   38.0494 N.am    1  <0>        -0.2849
     32 O1          2.3770   11.1552   35.1022 O.co2   1  <0>        -0.5498
     33 O2          5.9665   12.4639   40.2634 O.co2   1  <0>        -0.5479
     34 O3         14.2491   16.6296   33.9325 O.2     1  <0>        -0.2697
     35 O4          6.9554    9.1781   37.4572 O.2     1  <0>        -0.2699
     36 O5          1.8490   10.2968   37.0012 O.co2   1  <0>        -0.5498
     37 O6          5.1768   14.0738   39.0682 O.co2   1  <0>        -0.5479
     38 H1         18.4599   19.1225   31.3617 H       1  <0>         0.0305
     39 H2         16.7430   19.3257   30.8745 H       1  <0>         0.0305
     40 H3         17.3468   20.0966   32.3807 H       1  <0>         0.0305
     41 H4         17.9207   11.6200   35.4856 H       1  <0>         0.0624
     42 H5         19.4552   13.3784   34.6737 H       1  <0>         0.0624
     43 H6         15.7426   11.0970   36.5491 H       1  <0>         0.0621
     44 H7         11.9368    9.1492   35.8720 H       1  <0>         0.0636
     45 H8          9.5353    8.5187   36.1368 H       1  <0>         0.0626
     46 H9         19.4205   14.8210   32.5834 H       1  <0>         0.0639
     47 H10        14.2757   15.0036   35.4891 H       1  <0>         0.0627
     48 H11        11.1441   12.9561   37.7517 H       1  <0>         0.0639
     49 H12         8.5683   12.6239   39.1906 H       1  <0>         0.0514
     50 H13         8.1602   13.2708   37.5939 H       1  <0>         0.0514
     51 H14         4.5829   10.6621   38.3364 H       1  <0>         0.0290
     52 H15         5.1825   10.6422   36.6204 H       1  <0>         0.0290
     53 H16         3.0898   12.4235   37.8907 H       1  <0>         0.0325
     54 H17         3.8512   12.7611   36.2810 H       1  <0>         0.0325
     55 H18        13.7834   12.9440   37.9012 H       1  <0>         0.0511
     56 H19        12.8562   13.4703   36.4360 H       1  <0>         0.0511
     57 H20         6.1861   12.9139   37.0474 H       1  <0>         0.0562
     58 H21        15.1983   18.6184   32.9897 H       1  <0>         0.1562
     59 H22        13.3378   11.1613   35.7225 H       1  <0>         0.1464
@<TRIPOS>BOND
     1     1    14    1
     2     2     4   ar
     3     2    15   ar
     4     3     7   ar
     5     3    15   ar
     6     4    16   ar
     7     5     6   ar
     8     5    17   ar
     9     6    18   ar
    10     7    19   ar
    11     8    16   ar
    12     8    21   ar
    13     9    17   ar
    14     9    20   ar
    15    10    20    1
    16    10    31    1
    17    11    12    1
    18    11    25    1
    19    12    26    1
    20    13    16    1
    21    13    30    1
    22    14    28    1
    23    14    29    2
    24    15    21   ar
    25    17    30    1
    26    18    20   ar
    27    18    24    1
    28    19    22   ar
    29    19    29    1
    30    21    22   ar
    31    22    23    1
    32    23    28   am
    33    23    34    2
    34    24    31   am
    35    24    35    2
    36    25    27    1
    37    25    31    1
    38    26    32    1
    39    26    36    2
    40    27    33    1
    41    27    37    2
    42     1    38    1
    43     1    39    1
    44     1    40    1
    45     2    41    1
    46     3    42    1
    47     4    43    1
    48     5    44    1
    49     6    45    1
    50     7    46    1
    51     8    47    1
    52     9    48    1
    53    10    49    1
    54    10    50    1
    55    11    51    1
    56    11    52    1
    57    12    53    1
    58    12    54    1
    59    13    55    1
    60    13    56    1
    61    25    57    1
    62    28    58    1
    63    30    59    1
@<TRIPOS>SUBSTRUCTURE
     1 <0>         1 TEMP              0 ****  ****    0 ROOT

