
##########                                Name:        F89_301_1SYN
##########                    Molecular_Weight:             498.495
##########                DOCK_Rotatable_Bonds:                   8
##########                       Formal_Charge:             -2.0002
##########                     HBond_Acceptors:                  10
##########                        HBond_Donors:                   2
##########                         Heavy_Atoms:                  37
##########                            HA_RMSDs:               5.998
##########                            HA_RMSDh:               5.931
##########                            HA_RMSDm:               5.020
##########                          Grid_Score:           11.301815
##########                     Grid_vdw_energy:          -48.431236
##########                      Grid_es_energy:           59.733051
##########           Internal_energy_repulsive:           15.027654

@<TRIPOS>MOLECULE
F89_301_1SYN
 59 63 1 0 0
SMALL
USER_CHARGES


@<TRIPOS>ATOM
      1 C1         16.9217   19.8220   31.4069 C.3     1  <0>        -0.0085
      2 C2         16.9989   13.2106   35.5972 C.ar    1  <0>        -0.0537
      3 C3         18.3412   14.7044   34.2763 C.ar    1  <0>        -0.0520
      4 C4         15.8183   12.9328   36.2885 C.ar    1  <0>        -0.0565
      5 C5         11.8469   10.2733   37.2891 C.ar    1  <0>        -0.0401
      6 C6         10.5794    9.6725   37.4264 C.ar    1  <0>        -0.0476
      7 C7         18.3352   15.6076   33.2197 C.ar    1  <0>        -0.0349
      8 C8         14.8802   15.0623   35.5537 C.ar    1  <0>        -0.0486
      9 C9         10.9130   12.4317   37.9541 C.ar    1  <0>        -0.0354
     10 C10         8.3912   12.3938   38.4799 C.3     1  <0>         0.0414
     11 C11         5.1812   10.5407   37.8835 C.3     1  <0>        -0.0239
     12 C12         3.8679   10.8707   37.1735 C.3     1  <0>        -0.0112
     13 C13        13.5444   13.6302   37.0881 C.3     1  <0>         0.0344
     14 C14        16.6297   18.6398   32.2747 C.2     1  <0>         0.0991
     15 C15        17.1163   14.4093   34.8822 C.ar    1  <0>        -0.0170
     16 C16        14.7711   13.8752   36.3012 C.ar    1  <0>        -0.0298
     17 C17        12.0174   11.6465   37.5627 C.ar    1  <0>         0.0277
     18 C18         9.4979   10.4643   37.8583 C.ar    1  <0>         0.0417
     19 C19        17.3433   16.5952   33.1803 C.ar    1  <0>         0.0783
     20 C20         9.6687   11.8122   38.0909 C.ar    1  <0>        -0.0162
     21 C21        16.0228   15.3206   34.7743 C.ar    1  <0>        -0.0034
     22 C22        16.1265   16.4336   33.8850 C.ar    1  <0>         0.0701
     23 C23        15.1154   17.4159   33.6186 C.2     1  <0>         0.2517
     24 C24         8.1297   10.0922   38.1617 C.2     1  <0>         0.2477
     25 C25         6.1514   11.7272   38.0889 C.3     1  <0>         0.0664
     26 C26         3.0630    9.6389   36.7406 C.2     1  <0>         0.0418
     27 C27         5.6028   12.6754   39.1786 C.2     1  <0>         0.0622
     28 N1         15.4410   18.5108   32.8918 N.am    1  <0>        -0.2699
     29 N2         17.5630   17.6880   32.4389 N.2     1  <0>        -0.2363
     30 N3         13.3335   12.2290   37.4370 N.pl3   1  <0>        -0.3397
     31 N4          7.4893   11.2403   38.4789 N.am    1  <0>        -0.2849
     32 O1          3.5593    8.8664   35.9100 O.co2   1  <0>        -0.5498
     33 O2          5.7342   12.3959   40.3794 O.co2   1  <0>        -0.5479
     34 O3         13.9291   17.3035   33.9242 O.2     1  <0>        -0.2697
     35 O4          7.6762    8.9428   38.2498 O.2     1  <0>        -0.2699
     36 O5          1.9165    9.4642   37.1613 O.co2   1  <0>        -0.5498
     37 O6          5.0997   13.7469   38.8250 O.co2   1  <0>        -0.5479
     38 H1         17.9385   19.7341   30.9964 H       1  <0>         0.0305
     39 H2         16.1953   19.8592   30.5817 H       1  <0>         0.0305
     40 H3         16.8460   20.7427   32.0041 H       1  <0>         0.0305
     41 H4         17.8168   12.5055   35.6136 H       1  <0>         0.0624
     42 H5         19.2585   14.2472   34.6167 H       1  <0>         0.0624
     43 H6         15.7077   11.9955   36.8135 H       1  <0>         0.0621
     44 H7         12.6917    9.6794   36.9730 H       1  <0>         0.0636
     45 H8         10.4403    8.6247   37.2045 H       1  <0>         0.0626
     46 H9         19.0828   15.5487   32.4425 H       1  <0>         0.0639
     47 H10        14.0772   15.7840   35.5786 H       1  <0>         0.0627
     48 H11        11.0270   13.4888   38.1439 H       1  <0>         0.0639
     49 H12         8.4452   12.8665   39.4716 H       1  <0>         0.0514
     50 H13         8.0633   13.1665   37.7691 H       1  <0>         0.0514
     51 H14         4.9275   10.1467   38.8786 H       1  <0>         0.0290
     52 H15         5.7047    9.7888   37.2748 H       1  <0>         0.0290
     53 H16         3.2456   11.4560   37.8664 H       1  <0>         0.0325
     54 H17         4.1071   11.4535   36.2718 H       1  <0>         0.0325
     55 H18        13.6196   14.2056   38.0225 H       1  <0>         0.0511
     56 H19        12.6841   13.9645   36.4895 H       1  <0>         0.0511
     57 H20         6.2379   12.2758   37.1395 H       1  <0>         0.0562
     58 H21        14.7735   19.2509   32.8107 H       1  <0>         0.1562
     59 H22        13.7853   11.7063   36.7141 H       1  <0>         0.1464
@<TRIPOS>BOND
     1     1    14    1
     2     2     4   ar
     3     2    15   ar
     4     3     7   ar
     5     3    15   ar
     6     4    16   ar
     7     5     6   ar
     8     5    17   ar
     9     6    18   ar
    10     7    19   ar
    11     8    16   ar
    12     8    21   ar
    13     9    17   ar
    14     9    20   ar
    15    10    20    1
    16    10    31    1
    17    11    12    1
    18    11    25    1
    19    12    26    1
    20    13    16    1
    21    13    30    1
    22    14    28    1
    23    14    29    2
    24    15    21   ar
    25    17    30    1
    26    18    20   ar
    27    18    24    1
    28    19    22   ar
    29    19    29    1
    30    21    22   ar
    31    22    23    1
    32    23    28   am
    33    23    34    2
    34    24    31   am
    35    24    35    2
    36    25    27    1
    37    25    31    1
    38    26    32    1
    39    26    36    2
    40    27    33    1
    41    27    37    2
    42     1    38    1
    43     1    39    1
    44     1    40    1
    45     2    41    1
    46     3    42    1
    47     4    43    1
    48     5    44    1
    49     6    45    1
    50     7    46    1
    51     8    47    1
    52     9    48    1
    53    10    49    1
    54    10    50    1
    55    11    51    1
    56    11    52    1
    57    12    53    1
    58    12    54    1
    59    13    55    1
    60    13    56    1
    61    25    57    1
    62    28    58    1
    63    30    59    1
@<TRIPOS>SUBSTRUCTURE
     1 <0>         1 TEMP              0 ****  ****    0 ROOT

