
##########                                Name:        F89_301_1SYN
##########                    Molecular_Weight:             498.495
##########                DOCK_Rotatable_Bonds:                   8
##########                       Formal_Charge:             -2.0002
##########                     HBond_Acceptors:                  10
##########                        HBond_Donors:                   2
##########                         Heavy_Atoms:                  37
##########                            HA_RMSDs:               6.431
##########                            HA_RMSDh:               6.332
##########                            HA_RMSDm:               5.064
##########                          Grid_Score:           12.557594
##########                     Grid_vdw_energy:          -43.917339
##########                      Grid_es_energy:           56.474934
##########           Internal_energy_repulsive:           15.896996

@<TRIPOS>MOLECULE
F89_301_1SYN
 59 63 1 0 0
SMALL
USER_CHARGES


@<TRIPOS>ATOM
      1 C1         18.1227   18.2948   31.9193 C.3     1  <0>        -0.0085
      2 C2         16.2263   11.8473   35.9329 C.ar    1  <0>        -0.0537
      3 C3         17.9947   12.9635   34.7477 C.ar    1  <0>        -0.0520
      4 C4         14.9660   11.8714   36.5329 C.ar    1  <0>        -0.0565
      5 C5         11.7613   10.1077   39.0271 C.ar    1  <0>        -0.0401
      6 C6         10.6309    9.3257   39.3382 C.ar    1  <0>        -0.0476
      7 C7         18.2940   13.8468   33.7169 C.ar    1  <0>        -0.0349
      8 C8         14.6500   14.1741   35.7897 C.ar    1  <0>        -0.0486
      9 C9         10.3227   12.0242   38.5470 C.ar    1  <0>        -0.0354
     10 C10         7.8037   11.5783   38.8522 C.3     1  <0>         0.0414
     11 C11         5.4826    8.7883   38.3637 C.3     1  <0>        -0.0239
     12 C12         4.5084    8.5603   37.2076 C.3     1  <0>        -0.0112
     13 C13        12.8875   13.1144   37.1898 C.3     1  <0>         0.0344
     14 C14        17.4797   17.2181   32.7339 C.2     1  <0>         0.0991
     15 C15        16.6937   12.9828   35.2590 C.ar    1  <0>        -0.0170
     16 C16        14.1911   13.0476   36.4968 C.ar    1  <0>        -0.0298
     17 C17        11.6103   11.4566   38.6432 C.ar    1  <0>         0.0277
     18 C18         9.3568    9.9224   39.2764 C.ar    1  <0>         0.0417
     19 C19        17.5877   15.0530   33.6340 C.ar    1  <0>         0.0783
     20 C20         9.2183   11.2317   38.8681 C.ar    1  <0>        -0.0162
     21 C21        15.8752   14.1414   35.0987 C.ar    1  <0>        -0.0034
     22 C22        16.3206   15.1987   34.2478 C.ar    1  <0>         0.0701
     23 C23        15.6114   16.4063   33.9370 C.2     1  <0>         0.2517
     24 C24         8.0552    9.3846   39.6211 C.2     1  <0>         0.2477
     25 C25         5.8425   10.2629   38.6593 C.3     1  <0>         0.0664
     26 C26         4.3919    7.0961   36.7661 C.2     1  <0>         0.0418
     27 C27         4.7596   10.9007   39.5584 C.2     1  <0>         0.0622
     28 N1         16.2544   17.3889   33.2631 N.am    1  <0>        -0.2699
     29 N2         18.1291   16.0604   32.9381 N.2     1  <0>        -0.2363
     30 N3         12.7892   12.2401   38.3541 N.pl3   1  <0>        -0.3397
     31 N4          7.1579   10.3517   39.3234 N.am    1  <0>        -0.2849
     32 O1          4.6049    6.8143   35.5794 O.co2   1  <0>        -0.5498
     33 O2          5.0803   11.6395   40.5010 O.co2   1  <0>        -0.5479
     34 O3         14.4156   16.5948   34.1562 O.2     1  <0>        -0.2697
     35 O4          7.8251    8.3142   40.2005 O.2     1  <0>        -0.2699
     36 O5          4.0242    6.2314   37.5656 O.co2   1  <0>        -0.5498
     37 O6          3.5730   10.7155   39.2689 O.co2   1  <0>        -0.5479
     38 H1         19.1122   17.9560   31.5785 H       1  <0>         0.0305
     39 H2         17.4919   18.5203   31.0467 H       1  <0>         0.0305
     40 H3         18.2368   19.2003   32.5334 H       1  <0>         0.0305
     41 H4         16.8373   10.9584   35.9881 H       1  <0>         0.0624
     42 H5         18.7400   12.2871   35.1394 H       1  <0>         0.0624
     43 H6         14.5849   10.9885   37.0246 H       1  <0>         0.0621
     44 H7         12.7480    9.6720   39.0827 H       1  <0>         0.0636
     45 H8         10.7397    8.2885   39.6189 H       1  <0>         0.0626
     46 H9         19.0581   13.6068   32.9925 H       1  <0>         0.0639
     47 H10        14.0544   15.0750   35.7771 H       1  <0>         0.0627
     48 H11        10.1936   13.0492   38.2319 H       1  <0>         0.0639
     49 H12         7.5869   12.4311   39.5122 H       1  <0>         0.0514
     50 H13         7.4644   11.8542   37.8429 H       1  <0>         0.0514
     51 H14         5.0193    8.3741   39.2713 H       1  <0>         0.0290
     52 H15         6.4175    8.2648   38.1147 H       1  <0>         0.0290
     53 H16         3.5127    8.8970   37.5318 H       1  <0>         0.0325
     54 H17         4.8608    9.1471   36.3465 H       1  <0>         0.0325
     55 H18        12.7354   14.1499   37.5284 H       1  <0>         0.0511
     56 H19        12.1067   12.8168   36.4744 H       1  <0>         0.0511
     57 H20         5.8906   10.8085   37.7054 H       1  <0>         0.0562
     58 H21        15.8021   18.2742   33.1548 H       1  <0>         0.1562
     59 H22        13.5283   11.5751   38.2477 H       1  <0>         0.1464
@<TRIPOS>BOND
     1     1    14    1
     2     2     4   ar
     3     2    15   ar
     4     3     7   ar
     5     3    15   ar
     6     4    16   ar
     7     5     6   ar
     8     5    17   ar
     9     6    18   ar
    10     7    19   ar
    11     8    16   ar
    12     8    21   ar
    13     9    17   ar
    14     9    20   ar
    15    10    20    1
    16    10    31    1
    17    11    12    1
    18    11    25    1
    19    12    26    1
    20    13    16    1
    21    13    30    1
    22    14    28    1
    23    14    29    2
    24    15    21   ar
    25    17    30    1
    26    18    20   ar
    27    18    24    1
    28    19    22   ar
    29    19    29    1
    30    21    22   ar
    31    22    23    1
    32    23    28   am
    33    23    34    2
    34    24    31   am
    35    24    35    2
    36    25    27    1
    37    25    31    1
    38    26    32    1
    39    26    36    2
    40    27    33    1
    41    27    37    2
    42     1    38    1
    43     1    39    1
    44     1    40    1
    45     2    41    1
    46     3    42    1
    47     4    43    1
    48     5    44    1
    49     6    45    1
    50     7    46    1
    51     8    47    1
    52     9    48    1
    53    10    49    1
    54    10    50    1
    55    11    51    1
    56    11    52    1
    57    12    53    1
    58    12    54    1
    59    13    55    1
    60    13    56    1
    61    25    57    1
    62    28    58    1
    63    30    59    1
@<TRIPOS>SUBSTRUCTURE
     1 <0>         1 TEMP              0 ****  ****    0 ROOT

