
##########                                Name:      UI3_A1001_1SQT
##########                    Molecular_Weight:             349.434
##########                DOCK_Rotatable_Bonds:                   3
##########                       Formal_Charge:                   1
##########                     HBond_Acceptors:                   8
##########                        HBond_Donors:                   5
##########                         Heavy_Atoms:                  24
##########                            HA_RMSDs:               0.369
##########                            HA_RMSDh:               0.369
##########                            HA_RMSDm:               0.369
##########                          Grid_Score:         -127.468338
##########                     Grid_vdw_energy:          -45.090488
##########                      Grid_es_energy:          -82.377846
##########           Internal_energy_repulsive:           17.104885

@<TRIPOS>MOLECULE
UI3_A1001_1SQT
 45 47 1 0 0
SMALL
USER_CHARGES


@<TRIPOS>ATOM
      1 C1         25.3692   14.7681   34.0217 C.3     1  <0>         0.0430
      2 C2         23.9270   17.9346   39.8336 C.3     1  <0>         0.0747
      3 C3         19.4251   16.7657   32.0054 C.ar    1  <0>        -0.0532
      4 C4         21.4216   15.4192   32.1477 C.ar    1  <0>        -0.0516
      5 C5         18.6709   17.8346   32.4558 C.ar    1  <0>        -0.0464
      6 C6         22.6753   15.1069   32.7392 C.ar    1  <0>        -0.0308
      7 C7         20.4503   18.4750   34.0488 C.ar    1  <0>        -0.0389
      8 C8         23.5286   19.4120   34.9143 C.3     1  <0>         0.0235
      9 C9         23.7369   17.6696   36.3018 C.3     1  <0>         0.0540
     10 C10        20.6967   16.5383   32.5772 C.ar    1  <0>        -0.0174
     11 C11        19.1765   18.6808   33.4683 C.ar    1  <0>         0.0616
     12 C12        23.1961   15.9517   33.7755 C.ar    1  <0>         0.0799
     13 C13        21.2352   17.3995   33.6027 C.ar    1  <0>        -0.0111
     14 C14        22.5042   17.0968   34.1813 C.ar    1  <0>        -0.0038
     15 C15        23.2279   18.0075   35.1125 C.3     1  <0>         0.0198
     16 C16        18.3750   19.8018   33.9290 C.cat   1  <0>         0.2605
     17 N1         17.0348   19.8340   33.6795 N.pl3   1  <0>        -0.3060
     18 N2         18.8955   20.7987   34.5937 N.pl3   1  <0>        -0.2158
     19 N3         24.3128   19.7807   35.9629 N.3     1  <0>        -0.2243
     20 N4         23.9801   18.8983   37.0767 N.pl3   1  <0>        -0.1716
     21 O1         25.1803   20.1629   38.9524 O.2     1  <0>        -0.1544
     22 O2         25.9900   17.9371   38.2329 O.2     1  <0>        -0.1544
     23 O3         24.4274   15.7377   34.4704 O.3     1  <0>        -0.3476
     24 S1         24.8830   18.7882   38.5939 S.o2    1  <0>         0.0513
     25 H1         26.2405   14.7643   34.6931 H       1  <0>         0.0529
     26 H2         24.9002   13.7731   34.0242 H       1  <0>         0.0529
     27 H3         25.6941   15.0178   33.0009 H       1  <0>         0.0529
     28 H4         24.5051   17.8768   40.7677 H       1  <0>         0.0483
     29 H5         22.9904   18.4822   40.0156 H       1  <0>         0.0483
     30 H6         23.6955   16.9182   39.4824 H       1  <0>         0.0483
     31 H7         19.0479   16.1160   31.2294 H       1  <0>         0.0624
     32 H8         21.0259   14.7910   31.3634 H       1  <0>         0.0624
     33 H9         17.6950   18.0223   32.0331 H       1  <0>         0.0626
     34 H10        23.2314   14.2410   32.4116 H       1  <0>         0.0644
     35 H11        20.8133   19.1348   34.8229 H       1  <0>         0.0632
     36 H12        24.0580   19.5643   33.9622 H       1  <0>         0.0448
     37 H13        22.6037   20.0071   34.8940 H       1  <0>         0.0448
     38 H14        23.0266   17.0252   36.8405 H       1  <0>         0.0500
     39 H15        24.6828   17.1263   36.1603 H       1  <0>         0.0500
     40 H16        22.6488   17.4145   34.3894 H       1  <0>         0.0379
     41 H17        16.4843   20.6038   34.0026 H       1  <0>         0.1477
     42 H18        16.6023   19.0877   33.1735 H       1  <0>         0.1477
     43 H19        18.3144   21.5521   34.9014 H       1  <0>         0.4359
     44 H20        19.8750   20.8085   34.7947 H       1  <0>         0.4359
     45 H21        25.2791   19.6870   35.7231 H       1  <0>         0.1457
@<TRIPOS>BOND
     1     1    23    1
     2     2    24    1
     3     3     5   ar
     4     3    10   ar
     5     4     6   ar
     6     4    10   ar
     7     5    11   ar
     8     6    12   ar
     9     7    11   ar
    10     7    13   ar
    11     8    15    1
    12     8    19    1
    13     9    15    1
    14     9    20    1
    15    10    13   ar
    16    11    16    1
    17    12    14   ar
    18    12    23    1
    19    13    14   ar
    20    14    15    1
    21    16    17    1
    22    16    18    2
    23    19    20    1
    24    20    24    1
    25    21    24    2
    26    22    24    2
    27     1    25    1
    28     1    26    1
    29     1    27    1
    30     2    28    1
    31     2    29    1
    32     2    30    1
    33     3    31    1
    34     4    32    1
    35     5    33    1
    36     6    34    1
    37     7    35    1
    38     8    36    1
    39     8    37    1
    40     9    38    1
    41     9    39    1
    42    15    40    1
    43    17    41    1
    44    17    42    1
    45    18    43    1
    46    18    44    1
    47    19    45    1
@<TRIPOS>SUBSTRUCTURE
     1 <0>         1 TEMP              0 ****  ****    0 ROOT

