@<TRIPOS>MOLECULE
xtal-lig.mol2
40   43    1
SMALL
USER_CHARGES


@<TRIPOS>ATOM
      1 C1         -8.1912  -11.2422   50.9115 C.ar      1 <0>        -0.1150 
      2 C2         -8.1912  -12.5603   50.4212 C.ar      1 <0>        -0.1150 
      3 C3         -7.3799  -13.5402   51.0248 C.ar      1 <0>        -0.1150 
      4 C4         -6.5948  -13.2201   52.1448 C.ar      1 <0>        -0.1150 
      5 C5         -6.5912  -11.9012   52.6315 C.ar      1 <0>        -0.1150 
      6 C6         -7.3571  -10.8992   52.0002 C.ar      1 <0>        -0.1150 
      7 C7         -7.2028   -9.4715   52.4866 C.3       1 <0>        -0.0050 
      8 C8         -8.2754   -8.4906   51.9787 C.3       1 <0>         0.0800 
      9 N1         -8.2078   -7.2068   52.6645 N.pl3     1 <0>        -0.7800 
     10 C9         -8.5663   -7.1111   53.9874 C.ar      1 <0>         1.0611 
     11 N2         -9.1818   -8.1478   54.5761 N.ar      1 <0>        -0.7556 
     12 N3         -8.2033   -5.9477   54.6487 N.ar      1 <0>        -0.6857 
     13 C10        -8.4172   -5.8677   55.9298 C.ar      1 <0>         0.8613 
     14 N4         -8.0450   -4.7225   56.6316 N.pl3     1 <0>        -0.3000 
     15 N5         -8.9912   -6.9603   56.5360 N.pl3     1 <0>         0.3832 
     16 N6         -9.2441   -7.1287   57.8316 N.pl3     1 <0>        -1.5710 
     17 C11        -9.3912   -8.1081   55.8988 C.ar      1 <0>         1.0749 
     18 N7         -9.9241   -9.0226   56.7225 N.2       1 <0>        -0.6445 
     19 C12        -9.8159   -8.3933   57.9377 C.ar      1 <0>         0.6921 
     20 C13       -10.2238   -8.9844   59.2025 C.2       1 <0>         0.1230 
     21 C14       -10.8963  -10.1321   59.5195 C.2       1 <0>        -0.1540 
     22 C15       -10.9912  -10.1603   60.9386 C.2       1 <0>        -0.1540 
     23 C16       -10.3647   -9.0305   61.3823 C.2       1 <0>        -0.0190 
     24 O1         -9.8963   -8.2987   60.3352 O.3       1 <0>        -0.1900 
     25 H1         -8.7962  -10.5058   50.4045 H         1 <0>         0.1150 
     26 H2         -8.7957  -12.8192   49.5652 H         1 <0>         0.1150 
     27 H3         -7.3763  -14.5484   50.6349 H         1 <0>         0.1150 
     28 H4         -5.9788  -13.9756   52.6115 H         1 <0>         0.1150 
     29 H5         -5.9483  -11.6496   53.4615 H         1 <0>         0.1150 
     30 H6         -7.1905   -9.5102   53.5754 H         1 <0>         0.0600 
     31 H7         -6.2149   -9.1161   52.1906 H         1 <0>         0.0600 
     32 H8         -8.1543   -8.3226   50.9082 H         1 <0>         0.0600 
     33 H9         -9.2723   -8.9119   52.1147 H         1 <0>         0.0600 
     34 H10        -7.6613   -6.4582   52.2669 H         1 <0>         0.3800 
     35 H11        -7.8209   -3.8835   56.1079 H         1 <0>         0.3000 
     36 H12        -8.3451   -4.5657   57.5966 H         1 <0>         0.3000 
     37 H13        -9.0583   -6.4354   58.5515 H         1 <0>         0.4842 
     38 H14       -11.2755  -10.8579   58.8153 H         1 <0>         0.1260 
     39 H15       -11.4559  -10.9147   61.5569 H         1 <0>         0.1260 
     40 H16       -10.1737   -8.6118   62.3600 H         1 <0>         0.1420 
@<TRIPOS>BOND
     1    1   25 1    
     2    1    6 ar   
     3    1    2 ar   
     4    2    3 ar   
     5    2   26 1    
     6    3    4 ar   
     7    3   27 1    
     8    4    5 ar   
     9    4   28 1    
    10    5    6 ar   
    11    5   29 1    
    12    6    7 1    
    13    7   31 1    
    14    7   30 1    
    15    7    8 1    
    16    8   33 1    
    17    8   32 1    
    18    8    9 1    
    19    9   34 1    
    20    9   10 1    
    21   10   12 ar   
    22   10   11 ar   
    23   11   17 ar   
    24   12   13 ar   
    25   13   15 ar   
    26   13   14 1    
    27   14   36 1    
    28   14   35 1    
    29   15   17 ar   
    30   15   16 1    
    31   16   19 ar   
    32   16   37 1    
    33   17   18 ar   
    34   18   19 ar   
    35   19   20 1    
    36   20   24 1    
    37   20   21 2    
    38   21   22 1    
    39   21   38 1    
    40   22   23 2    
    41   22   39 1    
    42   23   24 1    
    43   23   40 1    
@<TRIPOS>SUBSTRUCTURE
     1 <0>         1 GROUP             0       ****    0 ROOT    
@<TRIPOS>MOLECULE
xtal-lig.mol2
40   43    1
SMALL
USER_CHARGES


@<TRIPOS>ATOM
      1 C1         -8.1912  -11.2422   50.9115 C.ar      1 <0>        -0.1150 
      2 C2         -8.1912  -12.5603   50.4212 C.ar      1 <0>        -0.1150 
      3 C3         -7.3799  -13.5402   51.0248 C.ar      1 <0>        -0.1150 
      4 C4         -6.5948  -13.2201   52.1448 C.ar      1 <0>        -0.1150 
      5 C5         -6.5912  -11.9012   52.6315 C.ar      1 <0>        -0.1150 
      6 C6         -7.3571  -10.8992   52.0002 C.ar      1 <0>        -0.1150 
      7 C7         -7.2028   -9.4715   52.4866 C.3       1 <0>        -0.0050 
      8 C8         -8.2754   -8.4906   51.9787 C.3       1 <0>         0.0800 
      9 N1         -8.2078   -7.2068   52.6645 N.pl3     1 <0>        -0.7800 
     10 C9         -8.5663   -7.1111   53.9874 C.ar      1 <0>         1.0611 
     11 N2         -9.1818   -8.1478   54.5761 N.ar      1 <0>        -0.7556 
     12 N3         -8.2033   -5.9477   54.6487 N.ar      1 <0>        -0.6857 
     13 C10        -8.4172   -5.8677   55.9298 C.ar      1 <0>         0.8613 
     14 N4         -8.0450   -4.7225   56.6316 N.pl3     1 <0>        -0.3000 
     15 N5         -8.9912   -6.9603   56.5360 N.pl3     1 <0>         0.3832 
     16 N6         -9.2441   -7.1287   57.8316 N.pl3     1 <0>        -1.5710 
     17 C11        -9.3912   -8.1081   55.8988 C.ar      1 <0>         1.0749 
     18 N7         -9.9241   -9.0226   56.7225 N.2       1 <0>        -0.6445 
     19 C12        -9.8159   -8.3933   57.9377 C.ar      1 <0>         0.6921 
     20 C13       -10.2238   -8.9844   59.2025 C.2       1 <0>         0.1230 
     21 C14       -10.8963  -10.1321   59.5195 C.2       1 <0>        -0.1540 
     22 C15       -10.9912  -10.1603   60.9386 C.2       1 <0>        -0.1540 
     23 C16       -10.3647   -9.0305   61.3823 C.2       1 <0>        -0.0190 
     24 O1         -9.8963   -8.2987   60.3352 O.3       1 <0>        -0.1900 
     25 H1         -8.7962  -10.5058   50.4045 H         1 <0>         0.1150 
     26 H2         -8.7957  -12.8192   49.5652 H         1 <0>         0.1150 
     27 H3         -7.3763  -14.5484   50.6349 H         1 <0>         0.1150 
     28 H4         -5.9788  -13.9756   52.6115 H         1 <0>         0.1150 
     29 H5         -5.9483  -11.6496   53.4615 H         1 <0>         0.1150 
     30 H6         -7.1905   -9.5102   53.5754 H         1 <0>         0.0600 
     31 H7         -6.2149   -9.1161   52.1906 H         1 <0>         0.0600 
     32 H8         -8.1543   -8.3226   50.9082 H         1 <0>         0.0600 
     33 H9         -9.2723   -8.9119   52.1147 H         1 <0>         0.0600 
     34 H10        -7.6613   -6.4582   52.2669 H         1 <0>         0.3800 
     35 H11        -7.8209   -3.8835   56.1079 H         1 <0>         0.3000 
     36 H12        -8.3451   -4.5657   57.5966 H         1 <0>         0.3000 
     37 H13        -9.0583   -6.4354   58.5515 H         1 <0>         0.4842 
     38 H14       -11.2755  -10.8579   58.8153 H         1 <0>         0.1260 
     39 H15       -11.4559  -10.9147   61.5569 H         1 <0>         0.1260 
     40 H16       -10.1737   -8.6118   62.3600 H         1 <0>         0.1420 
@<TRIPOS>BOND
     1    1   25 1    
     2    1    6 ar   
     3    1    2 ar   
     4    2    3 ar   
     5    2   26 1    
     6    3    4 ar   
     7    3   27 1    
     8    4    5 ar   
     9    4   28 1    
    10    5    6 ar   
    11    5   29 1    
    12    6    7 1    
    13    7   31 1    
    14    7   30 1    
    15    7    8 1    
    16    8   33 1    
    17    8   32 1    
    18    8    9 1    
    19    9   34 1    
    20    9   10 1    
    21   10   12 ar   
    22   10   11 ar   
    23   11   17 ar   
    24   12   13 ar   
    25   13   15 ar   
    26   13   14 1    
    27   14   36 1    
    28   14   35 1    
    29   15   17 ar   
    30   15   16 1    
    31   16   19 ar   
    32   16   37 1    
    33   17   18 ar   
    34   18   19 ar   
    35   19   20 1    
    36   20   24 1    
    37   20   21 2    
    38   21   22 1    
    39   21   38 1    
    40   22   23 2    
    41   22   39 1    
    42   23   24 1    
    43   23   40 1    
@<TRIPOS>SUBSTRUCTURE
     1 <0>         1 GROUP             0       ****    0 ROOT    
@<TRIPOS>MOLECULE
xtal-lig.mol2
40   43    1
SMALL
USER_CHARGES


@<TRIPOS>ATOM
      1 C1         -8.1912  -11.2422   50.9115 C.ar      1 <0>        -0.1150 
      2 C2         -8.1912  -12.5603   50.4212 C.ar      1 <0>        -0.1150 
      3 C3         -7.3799  -13.5402   51.0248 C.ar      1 <0>        -0.1150 
      4 C4         -6.5948  -13.2201   52.1448 C.ar      1 <0>        -0.1150 
      5 C5         -6.5912  -11.9012   52.6315 C.ar      1 <0>        -0.1150 
      6 C6         -7.3571  -10.8992   52.0002 C.ar      1 <0>        -0.1150 
      7 C7         -7.2028   -9.4715   52.4866 C.3       1 <0>        -0.0050 
      8 C8         -8.2754   -8.4906   51.9787 C.3       1 <0>         0.0800 
      9 N1         -8.2078   -7.2068   52.6645 N.pl3     1 <0>        -0.7800 
     10 C9         -8.5663   -7.1111   53.9874 C.ar      1 <0>         1.0611 
     11 N2         -9.1818   -8.1478   54.5761 N.ar      1 <0>        -0.7556 
     12 N3         -8.2033   -5.9477   54.6487 N.ar      1 <0>        -0.6857 
     13 C10        -8.4172   -5.8677   55.9298 C.ar      1 <0>         0.8613 
     14 N4         -8.0450   -4.7225   56.6316 N.pl3     1 <0>        -0.3000 
     15 N5         -8.9912   -6.9603   56.5360 N.pl3     1 <0>         0.3832 
     16 N6         -9.2441   -7.1287   57.8316 N.pl3     1 <0>        -1.5710 
     17 C11        -9.3912   -8.1081   55.8988 C.ar      1 <0>         1.0749 
     18 N7         -9.9241   -9.0226   56.7225 N.2       1 <0>        -0.6445 
     19 C12        -9.8159   -8.3933   57.9377 C.ar      1 <0>         0.6921 
     20 C13       -10.2238   -8.9844   59.2025 C.2       1 <0>         0.1230 
     21 C14       -10.8963  -10.1321   59.5195 C.2       1 <0>        -0.1540 
     22 C15       -10.9912  -10.1603   60.9386 C.2       1 <0>        -0.1540 
     23 C16       -10.3647   -9.0305   61.3823 C.2       1 <0>        -0.0190 
     24 O1         -9.8963   -8.2987   60.3352 O.3       1 <0>        -0.1900 
     25 H1         -8.7962  -10.5058   50.4045 H         1 <0>         0.1150 
     26 H2         -8.7957  -12.8192   49.5652 H         1 <0>         0.1150 
     27 H3         -7.3763  -14.5484   50.6349 H         1 <0>         0.1150 
     28 H4         -5.9788  -13.9756   52.6115 H         1 <0>         0.1150 
     29 H5         -5.9483  -11.6496   53.4615 H         1 <0>         0.1150 
     30 H6         -7.1905   -9.5102   53.5754 H         1 <0>         0.0600 
     31 H7         -6.2149   -9.1161   52.1906 H         1 <0>         0.0600 
     32 H8         -8.1543   -8.3226   50.9082 H         1 <0>         0.0600 
     33 H9         -9.2723   -8.9119   52.1147 H         1 <0>         0.0600 
     34 H10        -7.6613   -6.4582   52.2669 H         1 <0>         0.3800 
     35 H11        -7.8209   -3.8835   56.1079 H         1 <0>         0.3000 
     36 H12        -8.3451   -4.5657   57.5966 H         1 <0>         0.3000 
     37 H13        -9.0583   -6.4354   58.5515 H         1 <0>         0.4842 
     38 H14       -11.2755  -10.8579   58.8153 H         1 <0>         0.1260 
     39 H15       -11.4559  -10.9147   61.5569 H         1 <0>         0.1260 
     40 H16       -10.1737   -8.6118   62.3600 H         1 <0>         0.1420 
@<TRIPOS>BOND
     1    1   25 1    
     2    1    6 ar   
     3    1    2 ar   
     4    2    3 ar   
     5    2   26 1    
     6    3    4 ar   
     7    3   27 1    
     8    4    5 ar   
     9    4   28 1    
    10    5    6 ar   
    11    5   29 1    
    12    6    7 1    
    13    7   31 1    
    14    7   30 1    
    15    7    8 1    
    16    8   33 1    
    17    8   32 1    
    18    8    9 1    
    19    9   34 1    
    20    9   10 1    
    21   10   12 ar   
    22   10   11 ar   
    23   11   17 ar   
    24   12   13 ar   
    25   13   15 ar   
    26   13   14 1    
    27   14   36 1    
    28   14   35 1    
    29   15   17 ar   
    30   15   16 1    
    31   16   19 ar   
    32   16   37 1    
    33   17   18 ar   
    34   18   19 ar   
    35   19   20 1    
    36   20   24 1    
    37   20   21 2    
    38   21   22 1    
    39   21   38 1    
    40   22   23 2    
    41   22   39 1    
    42   23   24 1    
    43   23   40 1    
@<TRIPOS>SUBSTRUCTURE
     1 <0>         1 GROUP             0       ****    0 ROOT    
@<TRIPOS>MOLECULE
xtal-lig.mol2
40   43    1
SMALL
USER_CHARGES


@<TRIPOS>ATOM
      1 C1         -8.1912  -11.2372   50.9065 C.ar      1 <0>        -0.1150 
      2 C2         -8.1908  -12.5603   50.4279 C.ar      1 <0>        -0.1150 
      3 C3         -7.3836  -13.5359   51.0435 C.ar      1 <0>        -0.1150 
      4 C4         -6.5984  -13.2061   52.1600 C.ar      1 <0>        -0.1150 
      5 C5         -6.5911  -11.8819   52.6310 C.ar      1 <0>        -0.1150 
      6 C6         -7.3558  -10.8851   51.9906 C.ar      1 <0>        -0.1150 
      7 C7         -7.1932   -9.4532   52.4633 C.3       1 <0>        -0.0050 
      8 C8         -8.2713   -8.4734   51.9668 C.3       1 <0>         0.0800 
      9 N1         -8.1994   -7.1929   52.6585 N.pl3     1 <0>        -0.7800 
     10 C9         -8.5564   -7.1024   53.9827 C.ar      1 <0>         1.0611 
     11 N2         -9.1764   -8.1386   54.5654 N.ar      1 <0>        -0.7556 
     12 N3         -8.1912   -5.9432   54.6506 N.ar      1 <0>        -0.6857 
     13 C10        -8.4114   -5.8670   55.9312 C.ar      1 <0>         0.8613 
     14 N4         -8.0381   -4.7217   56.6316 N.pl3     1 <0>        -0.3000 
     15 N5         -8.9908   -6.9603   56.5340 N.pl3     1 <0>         0.3832 
     16 N6         -9.2531   -7.1361   57.8308 N.pl3     1 <0>        -1.5710 
     17 C11        -9.3911   -8.1038   55.8878 C.ar      1 <0>         1.0749 
     18 N7         -9.9281   -9.0229   56.7018 N.2       1 <0>        -0.6445 
     19 C12        -9.8241   -8.4045   57.9229 C.ar      1 <0>         0.6921 
     20 C13       -10.2526   -9.0041   59.1770 C.2       1 <0>         0.1230 
     21 C14       -10.0245   -8.6690   60.4837 C.2       1 <0>        -0.1540 
     22 C15       -10.7106   -9.6367   61.2697 C.2       1 <0>        -0.1540 
     23 C16       -11.3193  -10.4809   60.3840 C.2       1 <0>        -0.0190 
     24 O1        -11.0504  -10.1073   59.1027 O.3       1 <0>        -0.1900 
     25 H1         -8.7946  -10.5041   50.3917 H         1 <0>         0.1150 
     26 H2         -8.7944  -12.8260   49.5737 H         1 <0>         0.1150 
     27 H3         -7.3815  -14.5472   50.6624 H         1 <0>         0.1150 
     28 H4         -5.9841  -13.9590   52.6335 H         1 <0>         0.1150 
     29 H5         -5.9465  -11.6222   53.4573 H         1 <0>         0.1150 
     30 H6         -7.1642   -9.4834   53.5520 H         1 <0>         0.0600 
     31 H7         -6.2100   -9.1016   52.1486 H         1 <0>         0.0600 
     32 H8         -8.1589   -8.3023   50.8959 H         1 <0>         0.0600 
     33 H9         -9.2661   -8.8980   52.1083 H         1 <0>         0.0600 
     34 H10        -7.6483   -6.4451   52.2652 H         1 <0>         0.3800 
     35 H11        -7.8077   -3.8849   56.1071 H         1 <0>         0.3000 
     36 H12        -8.3401   -4.5607   57.5958 H         1 <0>         0.3000 
     37 H13        -9.0728   -6.4411   58.5499 H         1 <0>         0.4842 
     38 H14        -9.4323   -7.8343   60.8283 H         1 <0>         0.1260 
     39 H15       -10.7572   -9.7043   62.3468 H         1 <0>         0.1260 
     40 H16       -11.9502  -11.3527   60.4875 H         1 <0>         0.1420 
@<TRIPOS>BOND
     1    1   25 1    
     2    1    6 ar   
     3    1    2 ar   
     4    2    3 ar   
     5    2   26 1    
     6    3    4 ar   
     7    3   27 1    
     8    4    5 ar   
     9    4   28 1    
    10    5    6 ar   
    11    5   29 1    
    12    6    7 1    
    13    7   31 1    
    14    7   30 1    
    15    7    8 1    
    16    8   33 1    
    17    8   32 1    
    18    8    9 1    
    19    9   34 1    
    20    9   10 1    
    21   10   12 ar   
    22   10   11 ar   
    23   11   17 ar   
    24   12   13 ar   
    25   13   15 ar   
    26   13   14 1    
    27   14   36 1    
    28   14   35 1    
    29   15   17 ar   
    30   15   16 1    
    31   16   19 ar   
    32   16   37 1    
    33   17   18 ar   
    34   18   19 ar   
    35   19   20 1    
    36   20   24 1    
    37   20   21 2    
    38   21   22 1    
    39   21   38 1    
    40   22   23 2    
    41   22   39 1    
    42   23   24 1    
    43   23   40 1    
@<TRIPOS>SUBSTRUCTURE
     1 <0>         1 GROUP             0       ****    0 ROOT    
@<TRIPOS>MOLECULE
xtal-lig.mol2
40   43    1
SMALL
USER_CHARGES


@<TRIPOS>ATOM
      1 C1         -8.1912  -11.2372   50.9065 C.ar      1 <0>        -0.1150 
      2 C2         -8.1908  -12.5603   50.4279 C.ar      1 <0>        -0.1150 
      3 C3         -7.3836  -13.5359   51.0435 C.ar      1 <0>        -0.1150 
      4 C4         -6.5984  -13.2061   52.1600 C.ar      1 <0>        -0.1150 
      5 C5         -6.5911  -11.8819   52.6310 C.ar      1 <0>        -0.1150 
      6 C6         -7.3558  -10.8851   51.9906 C.ar      1 <0>        -0.1150 
      7 C7         -7.1932   -9.4532   52.4633 C.3       1 <0>        -0.0050 
      8 C8         -8.2713   -8.4734   51.9668 C.3       1 <0>         0.0800 
      9 N1         -8.1994   -7.1929   52.6585 N.pl3     1 <0>        -0.7800 
     10 C9         -8.5564   -7.1024   53.9827 C.ar      1 <0>         1.0611 
     11 N2         -9.1764   -8.1386   54.5654 N.ar      1 <0>        -0.7556 
     12 N3         -8.1912   -5.9432   54.6506 N.ar      1 <0>        -0.6857 
     13 C10        -8.4114   -5.8670   55.9312 C.ar      1 <0>         0.8613 
     14 N4         -8.0381   -4.7217   56.6316 N.pl3     1 <0>        -0.3000 
     15 N5         -8.9908   -6.9603   56.5340 N.pl3     1 <0>         0.3832 
     16 N6         -9.2531   -7.1361   57.8308 N.pl3     1 <0>        -1.5710 
     17 C11        -9.3911   -8.1038   55.8878 C.ar      1 <0>         1.0749 
     18 N7         -9.9281   -9.0229   56.7018 N.2       1 <0>        -0.6445 
     19 C12        -9.8241   -8.4045   57.9229 C.ar      1 <0>         0.6921 
     20 C13       -10.2526   -9.0041   59.1770 C.2       1 <0>         0.1230 
     21 C14       -10.0245   -8.6690   60.4837 C.2       1 <0>        -0.1540 
     22 C15       -10.7106   -9.6367   61.2697 C.2       1 <0>        -0.1540 
     23 C16       -11.3193  -10.4809   60.3840 C.2       1 <0>        -0.0190 
     24 O1        -11.0504  -10.1073   59.1027 O.3       1 <0>        -0.1900 
     25 H1         -8.7946  -10.5041   50.3917 H         1 <0>         0.1150 
     26 H2         -8.7944  -12.8260   49.5737 H         1 <0>         0.1150 
     27 H3         -7.3815  -14.5472   50.6624 H         1 <0>         0.1150 
     28 H4         -5.9841  -13.9590   52.6335 H         1 <0>         0.1150 
     29 H5         -5.9465  -11.6222   53.4573 H         1 <0>         0.1150 
     30 H6         -7.1642   -9.4834   53.5520 H         1 <0>         0.0600 
     31 H7         -6.2100   -9.1016   52.1486 H         1 <0>         0.0600 
     32 H8         -8.1589   -8.3023   50.8959 H         1 <0>         0.0600 
     33 H9         -9.2661   -8.8980   52.1083 H         1 <0>         0.0600 
     34 H10        -7.6483   -6.4451   52.2652 H         1 <0>         0.3800 
     35 H11        -7.8077   -3.8849   56.1071 H         1 <0>         0.3000 
     36 H12        -8.3401   -4.5607   57.5958 H         1 <0>         0.3000 
     37 H13        -9.0728   -6.4411   58.5499 H         1 <0>         0.4842 
     38 H14        -9.4323   -7.8343   60.8283 H         1 <0>         0.1260 
     39 H15       -10.7572   -9.7043   62.3468 H         1 <0>         0.1260 
     40 H16       -11.9502  -11.3527   60.4875 H         1 <0>         0.1420 
@<TRIPOS>BOND
     1    1   25 1    
     2    1    6 ar   
     3    1    2 ar   
     4    2    3 ar   
     5    2   26 1    
     6    3    4 ar   
     7    3   27 1    
     8    4    5 ar   
     9    4   28 1    
    10    5    6 ar   
    11    5   29 1    
    12    6    7 1    
    13    7   31 1    
    14    7   30 1    
    15    7    8 1    
    16    8   33 1    
    17    8   32 1    
    18    8    9 1    
    19    9   34 1    
    20    9   10 1    
    21   10   12 ar   
    22   10   11 ar   
    23   11   17 ar   
    24   12   13 ar   
    25   13   15 ar   
    26   13   14 1    
    27   14   36 1    
    28   14   35 1    
    29   15   17 ar   
    30   15   16 1    
    31   16   19 ar   
    32   16   37 1    
    33   17   18 ar   
    34   18   19 ar   
    35   19   20 1    
    36   20   24 1    
    37   20   21 2    
    38   21   22 1    
    39   21   38 1    
    40   22   23 2    
    41   22   39 1    
    42   23   24 1    
    43   23   40 1    
@<TRIPOS>SUBSTRUCTURE
     1 <0>         1 GROUP             0       ****    0 ROOT    
@<TRIPOS>MOLECULE
xtal-lig.mol2
40   43    1
SMALL
USER_CHARGES


@<TRIPOS>ATOM
      1 C1         -8.1912  -11.2372   50.9065 C.ar      1 <0>        -0.1150 
      2 C2         -8.1908  -12.5603   50.4279 C.ar      1 <0>        -0.1150 
      3 C3         -7.3836  -13.5359   51.0435 C.ar      1 <0>        -0.1150 
      4 C4         -6.5984  -13.2061   52.1600 C.ar      1 <0>        -0.1150 
      5 C5         -6.5911  -11.8819   52.6310 C.ar      1 <0>        -0.1150 
      6 C6         -7.3558  -10.8851   51.9906 C.ar      1 <0>        -0.1150 
      7 C7         -7.1932   -9.4532   52.4633 C.3       1 <0>        -0.0050 
      8 C8         -8.2713   -8.4734   51.9668 C.3       1 <0>         0.0800 
      9 N1         -8.1994   -7.1929   52.6585 N.pl3     1 <0>        -0.7800 
     10 C9         -8.5564   -7.1024   53.9827 C.ar      1 <0>         1.0611 
     11 N2         -9.1764   -8.1386   54.5654 N.ar      1 <0>        -0.7556 
     12 N3         -8.1912   -5.9432   54.6506 N.ar      1 <0>        -0.6857 
     13 C10        -8.4114   -5.8670   55.9312 C.ar      1 <0>         0.8613 
     14 N4         -8.0381   -4.7217   56.6316 N.pl3     1 <0>        -0.3000 
     15 N5         -8.9908   -6.9603   56.5340 N.pl3     1 <0>         0.3832 
     16 N6         -9.2531   -7.1361   57.8308 N.pl3     1 <0>        -1.5710 
     17 C11        -9.3911   -8.1038   55.8878 C.ar      1 <0>         1.0749 
     18 N7         -9.9281   -9.0229   56.7018 N.2       1 <0>        -0.6445 
     19 C12        -9.8241   -8.4045   57.9229 C.ar      1 <0>         0.6921 
     20 C13       -10.2526   -9.0041   59.1770 C.2       1 <0>         0.1230 
     21 C14       -10.0245   -8.6690   60.4837 C.2       1 <0>        -0.1540 
     22 C15       -10.7106   -9.6367   61.2697 C.2       1 <0>        -0.1540 
     23 C16       -11.3193  -10.4809   60.3840 C.2       1 <0>        -0.0190 
     24 O1        -11.0504  -10.1073   59.1027 O.3       1 <0>        -0.1900 
     25 H1         -8.7946  -10.5041   50.3917 H         1 <0>         0.1150 
     26 H2         -8.7944  -12.8260   49.5737 H         1 <0>         0.1150 
     27 H3         -7.3815  -14.5472   50.6624 H         1 <0>         0.1150 
     28 H4         -5.9841  -13.9590   52.6335 H         1 <0>         0.1150 
     29 H5         -5.9465  -11.6222   53.4573 H         1 <0>         0.1150 
     30 H6         -7.1642   -9.4834   53.5520 H         1 <0>         0.0600 
     31 H7         -6.2100   -9.1016   52.1486 H         1 <0>         0.0600 
     32 H8         -8.1589   -8.3023   50.8959 H         1 <0>         0.0600 
     33 H9         -9.2661   -8.8980   52.1083 H         1 <0>         0.0600 
     34 H10        -7.6483   -6.4451   52.2652 H         1 <0>         0.3800 
     35 H11        -7.8077   -3.8849   56.1071 H         1 <0>         0.3000 
     36 H12        -8.3401   -4.5607   57.5958 H         1 <0>         0.3000 
     37 H13        -9.0728   -6.4411   58.5499 H         1 <0>         0.4842 
     38 H14        -9.4323   -7.8343   60.8283 H         1 <0>         0.1260 
     39 H15       -10.7572   -9.7043   62.3468 H         1 <0>         0.1260 
     40 H16       -11.9502  -11.3527   60.4875 H         1 <0>         0.1420 
@<TRIPOS>BOND
     1    1   25 1    
     2    1    6 ar   
     3    1    2 ar   
     4    2    3 ar   
     5    2   26 1    
     6    3    4 ar   
     7    3   27 1    
     8    4    5 ar   
     9    4   28 1    
    10    5    6 ar   
    11    5   29 1    
    12    6    7 1    
    13    7   31 1    
    14    7   30 1    
    15    7    8 1    
    16    8   33 1    
    17    8   32 1    
    18    8    9 1    
    19    9   34 1    
    20    9   10 1    
    21   10   12 ar   
    22   10   11 ar   
    23   11   17 ar   
    24   12   13 ar   
    25   13   15 ar   
    26   13   14 1    
    27   14   36 1    
    28   14   35 1    
    29   15   17 ar   
    30   15   16 1    
    31   16   19 ar   
    32   16   37 1    
    33   17   18 ar   
    34   18   19 ar   
    35   19   20 1    
    36   20   24 1    
    37   20   21 2    
    38   21   22 1    
    39   21   38 1    
    40   22   23 2    
    41   22   39 1    
    42   23   24 1    
    43   23   40 1    
@<TRIPOS>SUBSTRUCTURE
     1 <0>         1 GROUP             0       ****    0 ROOT    
@<TRIPOS>MOLECULE
xtal-lig.mol2
40   43    1
SMALL
USER_CHARGES


@<TRIPOS>ATOM
      1 C1         -6.5912  -11.9159   52.5036 C.ar      1 <0>        -0.1150 
      2 C2         -6.6009  -13.2335   52.0138 C.ar      1 <0>        -0.1150 
      3 C3         -7.3862  -13.5458   50.8915 C.ar      1 <0>        -0.1150 
      4 C4         -8.1912  -12.5603   50.2881 C.ar      1 <0>        -0.1150 
      5 C5         -8.1912  -11.2463   50.7825 C.ar      1 <0>        -0.1150 
      6 C6         -7.3556  -10.9118   51.8722 C.ar      1 <0>        -0.1150 
      7 C7         -7.1968   -9.4856   52.3515 C.3       1 <0>        -0.0050 
      8 C8         -8.3232   -8.5388   51.9061 C.3       1 <0>         0.0800 
      9 N1         -8.2836   -7.2797   52.6316 N.pl3     1 <0>        -0.7800 
     10 C9         -8.6119   -7.2441   53.9635 C.ar      1 <0>         1.0611 
     11 N2         -9.1722   -8.3206   54.5344 N.ar      1 <0>        -0.7556 
     12 N3         -8.2998   -6.0816   54.6452 N.ar      1 <0>        -0.6857 
     13 C10        -8.5135   -6.0361   55.9263 C.ar      1 <0>         0.8613 
     14 N4         -8.1912   -4.8812   56.6316 N.pl3     1 <0>        -0.3000 
     15 N5         -9.0375   -7.1614   56.5185 N.pl3     1 <0>         0.3832 
     16 N6         -9.3146   -7.3603   57.8098 N.pl3     1 <0>        -1.5710 
     17 C11        -9.3912   -8.3116   55.8560 C.ar      1 <0>         1.0749 
     18 N7         -9.9054   -9.2577   56.6544 N.2       1 <0>        -0.6445 
     19 C12        -9.8480   -8.6445   57.8807 C.ar      1 <0>         0.6921 
     20 C13       -10.2826   -9.2673   59.1204 C.2       1 <0>         0.1230 
     21 C14       -10.9504  -10.4294   59.3887 C.2       1 <0>        -0.1540 
     22 C15       -11.0948  -10.4907   60.8021 C.2       1 <0>        -0.1540 
     23 C16       -10.4964   -9.3641   61.2917 C.2       1 <0>        -0.0190 
     24 O1        -10.0007   -8.6034   60.2779 O.3       1 <0>        -0.1900 
     25 H1         -5.9505  -11.6684   53.3376 H         1 <0>         0.1150 
     26 H2         -5.9897  -13.9935   52.4794 H         1 <0>         0.1150 
     27 H3         -7.3866  -14.5529   50.4992 H         1 <0>         0.1150 
     28 H4         -8.7940  -12.8178   49.4316 H         1 <0>         0.1150 
     29 H5         -8.7923  -10.5072   50.2748 H         1 <0>         0.1150 
     30 H6         -7.1176   -9.5229   53.4376 H         1 <0>         0.0600 
     31 H7         -6.2374   -9.1076   51.9961 H         1 <0>         0.0600 
     32 H8         -8.2450   -8.3344   50.8380 H         1 <0>         0.0600 
     33 H9         -9.2971   -9.0052   52.0617 H         1 <0>         0.0600 
     34 H10        -7.7876   -6.4920   52.2430 H         1 <0>         0.3800 
     35 H11        -7.9775   -4.0324   56.1202 H         1 <0>         0.3000 
     36 H12        -8.4780   -4.7409   57.6021 H         1 <0>         0.3000 
     37 H13        -9.1703   -6.6787   58.5477 H         1 <0>         0.4842 
     38 H14       -11.2975  -11.1414   58.6551 H         1 <0>         0.1260 
     39 H15       -11.5727  -11.2634   61.3868 H         1 <0>         0.1260 
     40 H16       -10.3440   -8.9657   62.2845 H         1 <0>         0.1420 
@<TRIPOS>BOND
     1    1   25 1    
     2    1    6 ar   
     3    1    2 ar   
     4    2    3 ar   
     5    2   26 1    
     6    3    4 ar   
     7    3   27 1    
     8    4    5 ar   
     9    4   28 1    
    10    5    6 ar   
    11    5   29 1    
    12    6    7 1    
    13    7   31 1    
    14    7   30 1    
    15    7    8 1    
    16    8   33 1    
    17    8   32 1    
    18    8    9 1    
    19    9   34 1    
    20    9   10 1    
    21   10   12 ar   
    22   10   11 ar   
    23   11   17 ar   
    24   12   13 ar   
    25   13   15 ar   
    26   13   14 1    
    27   14   36 1    
    28   14   35 1    
    29   15   17 ar   
    30   15   16 1    
    31   16   19 ar   
    32   16   37 1    
    33   17   18 ar   
    34   18   19 ar   
    35   19   20 1    
    36   20   24 1    
    37   20   21 2    
    38   21   22 1    
    39   21   38 1    
    40   22   23 2    
    41   22   39 1    
    42   23   24 1    
    43   23   40 1    
@<TRIPOS>SUBSTRUCTURE
     1 <0>         1 GROUP             0       ****    0 ROOT    
@<TRIPOS>MOLECULE
xtal-lig.mol2
40   43    1
SMALL
USER_CHARGES


@<TRIPOS>ATOM
      1 C1         -6.5912  -11.9159   52.5036 C.ar      1 <0>        -0.1150 
      2 C2         -6.6009  -13.2335   52.0138 C.ar      1 <0>        -0.1150 
      3 C3         -7.3862  -13.5458   50.8915 C.ar      1 <0>        -0.1150 
      4 C4         -8.1912  -12.5603   50.2881 C.ar      1 <0>        -0.1150 
      5 C5         -8.1912  -11.2463   50.7825 C.ar      1 <0>        -0.1150 
      6 C6         -7.3556  -10.9118   51.8722 C.ar      1 <0>        -0.1150 
      7 C7         -7.1968   -9.4856   52.3515 C.3       1 <0>        -0.0050 
      8 C8         -8.3232   -8.5388   51.9061 C.3       1 <0>         0.0800 
      9 N1         -8.2836   -7.2797   52.6316 N.pl3     1 <0>        -0.7800 
     10 C9         -8.6119   -7.2441   53.9635 C.ar      1 <0>         1.0611 
     11 N2         -9.1722   -8.3206   54.5344 N.ar      1 <0>        -0.7556 
     12 N3         -8.2998   -6.0816   54.6452 N.ar      1 <0>        -0.6857 
     13 C10        -8.5135   -6.0361   55.9263 C.ar      1 <0>         0.8613 
     14 N4         -8.1912   -4.8812   56.6316 N.pl3     1 <0>        -0.3000 
     15 N5         -9.0375   -7.1614   56.5185 N.pl3     1 <0>         0.3832 
     16 N6         -9.3146   -7.3603   57.8098 N.pl3     1 <0>        -1.5710 
     17 C11        -9.3912   -8.3116   55.8560 C.ar      1 <0>         1.0749 
     18 N7         -9.9054   -9.2577   56.6544 N.2       1 <0>        -0.6445 
     19 C12        -9.8480   -8.6445   57.8807 C.ar      1 <0>         0.6921 
     20 C13       -10.2826   -9.2673   59.1204 C.2       1 <0>         0.1230 
     21 C14       -10.9504  -10.4294   59.3887 C.2       1 <0>        -0.1540 
     22 C15       -11.0948  -10.4907   60.8021 C.2       1 <0>        -0.1540 
     23 C16       -10.4964   -9.3641   61.2917 C.2       1 <0>        -0.0190 
     24 O1        -10.0007   -8.6034   60.2779 O.3       1 <0>        -0.1900 
     25 H1         -5.9505  -11.6684   53.3376 H         1 <0>         0.1150 
     26 H2         -5.9897  -13.9935   52.4794 H         1 <0>         0.1150 
     27 H3         -7.3866  -14.5529   50.4992 H         1 <0>         0.1150 
     28 H4         -8.7940  -12.8178   49.4316 H         1 <0>         0.1150 
     29 H5         -8.7923  -10.5072   50.2748 H         1 <0>         0.1150 
     30 H6         -7.1176   -9.5229   53.4376 H         1 <0>         0.0600 
     31 H7         -6.2374   -9.1076   51.9961 H         1 <0>         0.0600 
     32 H8         -8.2450   -8.3344   50.8380 H         1 <0>         0.0600 
     33 H9         -9.2971   -9.0052   52.0617 H         1 <0>         0.0600 
     34 H10        -7.7876   -6.4920   52.2430 H         1 <0>         0.3800 
     35 H11        -7.9775   -4.0324   56.1202 H         1 <0>         0.3000 
     36 H12        -8.4780   -4.7409   57.6021 H         1 <0>         0.3000 
     37 H13        -9.1703   -6.6787   58.5477 H         1 <0>         0.4842 
     38 H14       -11.2975  -11.1414   58.6551 H         1 <0>         0.1260 
     39 H15       -11.5727  -11.2634   61.3868 H         1 <0>         0.1260 
     40 H16       -10.3440   -8.9657   62.2845 H         1 <0>         0.1420 
@<TRIPOS>BOND
     1    1   25 1    
     2    1    6 ar   
     3    1    2 ar   
     4    2    3 ar   
     5    2   26 1    
     6    3    4 ar   
     7    3   27 1    
     8    4    5 ar   
     9    4   28 1    
    10    5    6 ar   
    11    5   29 1    
    12    6    7 1    
    13    7   31 1    
    14    7   30 1    
    15    7    8 1    
    16    8   33 1    
    17    8   32 1    
    18    8    9 1    
    19    9   34 1    
    20    9   10 1    
    21   10   12 ar   
    22   10   11 ar   
    23   11   17 ar   
    24   12   13 ar   
    25   13   15 ar   
    26   13   14 1    
    27   14   36 1    
    28   14   35 1    
    29   15   17 ar   
    30   15   16 1    
    31   16   19 ar   
    32   16   37 1    
    33   17   18 ar   
    34   18   19 ar   
    35   19   20 1    
    36   20   24 1    
    37   20   21 2    
    38   21   22 1    
    39   21   38 1    
    40   22   23 2    
    41   22   39 1    
    42   23   24 1    
    43   23   40 1    
@<TRIPOS>SUBSTRUCTURE
     1 <0>         1 GROUP             0       ****    0 ROOT    
@<TRIPOS>MOLECULE
xtal-lig.mol2
40   43    1
SMALL
USER_CHARGES


@<TRIPOS>ATOM
      1 C1         -6.5912  -11.9159   52.5036 C.ar      1 <0>        -0.1150 
      2 C2         -6.6009  -13.2335   52.0138 C.ar      1 <0>        -0.1150 
      3 C3         -7.3862  -13.5458   50.8915 C.ar      1 <0>        -0.1150 
      4 C4         -8.1912  -12.5603   50.2881 C.ar      1 <0>        -0.1150 
      5 C5         -8.1912  -11.2463   50.7825 C.ar      1 <0>        -0.1150 
      6 C6         -7.3556  -10.9118   51.8722 C.ar      1 <0>        -0.1150 
      7 C7         -7.1968   -9.4856   52.3515 C.3       1 <0>        -0.0050 
      8 C8         -8.3232   -8.5388   51.9061 C.3       1 <0>         0.0800 
      9 N1         -8.2836   -7.2797   52.6316 N.pl3     1 <0>        -0.7800 
     10 C9         -8.6119   -7.2441   53.9635 C.ar      1 <0>         1.0611 
     11 N2         -9.1722   -8.3206   54.5344 N.ar      1 <0>        -0.7556 
     12 N3         -8.2998   -6.0816   54.6452 N.ar      1 <0>        -0.6857 
     13 C10        -8.5135   -6.0361   55.9263 C.ar      1 <0>         0.8613 
     14 N4         -8.1912   -4.8812   56.6316 N.pl3     1 <0>        -0.3000 
     15 N5         -9.0375   -7.1614   56.5185 N.pl3     1 <0>         0.3832 
     16 N6         -9.3146   -7.3603   57.8098 N.pl3     1 <0>        -1.5710 
     17 C11        -9.3912   -8.3116   55.8560 C.ar      1 <0>         1.0749 
     18 N7         -9.9054   -9.2577   56.6544 N.2       1 <0>        -0.6445 
     19 C12        -9.8480   -8.6445   57.8807 C.ar      1 <0>         0.6921 
     20 C13       -10.2826   -9.2673   59.1204 C.2       1 <0>         0.1230 
     21 C14       -10.9504  -10.4294   59.3887 C.2       1 <0>        -0.1540 
     22 C15       -11.0948  -10.4907   60.8021 C.2       1 <0>        -0.1540 
     23 C16       -10.4964   -9.3641   61.2917 C.2       1 <0>        -0.0190 
     24 O1        -10.0007   -8.6034   60.2779 O.3       1 <0>        -0.1900 
     25 H1         -5.9505  -11.6684   53.3376 H         1 <0>         0.1150 
     26 H2         -5.9897  -13.9935   52.4794 H         1 <0>         0.1150 
     27 H3         -7.3866  -14.5529   50.4992 H         1 <0>         0.1150 
     28 H4         -8.7940  -12.8178   49.4316 H         1 <0>         0.1150 
     29 H5         -8.7923  -10.5072   50.2748 H         1 <0>         0.1150 
     30 H6         -7.1176   -9.5229   53.4376 H         1 <0>         0.0600 
     31 H7         -6.2374   -9.1076   51.9961 H         1 <0>         0.0600 
     32 H8         -8.2450   -8.3344   50.8380 H         1 <0>         0.0600 
     33 H9         -9.2971   -9.0052   52.0617 H         1 <0>         0.0600 
     34 H10        -7.7876   -6.4920   52.2430 H         1 <0>         0.3800 
     35 H11        -7.9775   -4.0324   56.1202 H         1 <0>         0.3000 
     36 H12        -8.4780   -4.7409   57.6021 H         1 <0>         0.3000 
     37 H13        -9.1703   -6.6787   58.5477 H         1 <0>         0.4842 
     38 H14       -11.2975  -11.1414   58.6551 H         1 <0>         0.1260 
     39 H15       -11.5727  -11.2634   61.3868 H         1 <0>         0.1260 
     40 H16       -10.3440   -8.9657   62.2845 H         1 <0>         0.1420 
@<TRIPOS>BOND
     1    1   25 1    
     2    1    6 ar   
     3    1    2 ar   
     4    2    3 ar   
     5    2   26 1    
     6    3    4 ar   
     7    3   27 1    
     8    4    5 ar   
     9    4   28 1    
    10    5    6 ar   
    11    5   29 1    
    12    6    7 1    
    13    7   31 1    
    14    7   30 1    
    15    7    8 1    
    16    8   33 1    
    17    8   32 1    
    18    8    9 1    
    19    9   34 1    
    20    9   10 1    
    21   10   12 ar   
    22   10   11 ar   
    23   11   17 ar   
    24   12   13 ar   
    25   13   15 ar   
    26   13   14 1    
    27   14   36 1    
    28   14   35 1    
    29   15   17 ar   
    30   15   16 1    
    31   16   19 ar   
    32   16   37 1    
    33   17   18 ar   
    34   18   19 ar   
    35   19   20 1    
    36   20   24 1    
    37   20   21 2    
    38   21   22 1    
    39   21   38 1    
    40   22   23 2    
    41   22   39 1    
    42   23   24 1    
    43   23   40 1    
@<TRIPOS>SUBSTRUCTURE
     1 <0>         1 GROUP             0       ****    0 ROOT    
@<TRIPOS>MOLECULE
xtal-lig.mol2
40   43    1
SMALL
USER_CHARGES


@<TRIPOS>ATOM
      1 C1         -6.5912  -11.9012   52.4968 C.ar      1 <0>        -0.1150 
      2 C2         -6.5970  -13.2208   52.0122 C.ar      1 <0>        -0.1150 
      3 C3         -7.3838  -13.5410   50.8929 C.ar      1 <0>        -0.1150 
      4 C4         -8.1912  -12.5603   50.2845 C.ar      1 <0>        -0.1150 
      5 C5         -8.1912  -11.2444   50.7706 C.ar      1 <0>        -0.1150 
      6 C6         -7.3610  -10.9034   51.8618 C.ar      1 <0>        -0.1150 
      7 C7         -7.2223   -9.4755   52.3394 C.3       1 <0>        -0.0050 
      8 C8         -8.3855   -8.5624   51.9204 C.3       1 <0>         0.0800 
      9 N1         -8.3631   -7.3025   52.6414 N.pl3     1 <0>        -0.7800 
     10 C9         -8.6549   -7.2725   53.9809 C.ar      1 <0>         1.0611 
     11 N2         -9.1898   -8.3541   54.5676 N.ar      1 <0>        -0.7556 
     12 N3         -8.3371   -6.1048   54.6504 N.ar      1 <0>        -0.6857 
     13 C10        -8.5284   -6.0540   55.9342 C.ar      1 <0>         0.8613 
     14 N4         -8.1912   -4.8978   56.6316 N.pl3     1 <0>        -0.3000 
     15 N5         -9.0394   -7.1778   56.5386 N.pl3     1 <0>         0.3832 
     16 N6         -9.3070   -7.3603   57.8316 N.pl3     1 <0>        -1.5710 
     17 C11        -9.3912   -8.3376   55.8925 C.ar      1 <0>         1.0749 
     18 N7         -9.8903   -9.2778   56.7084 N.2       1 <0>        -0.6445 
     19 C12        -9.8269   -8.6475   57.9267 C.ar      1 <0>         0.6921 
     20 C13       -10.2748   -9.2249   59.1842 C.2       1 <0>         0.1230 
     21 C14       -10.0703   -8.8515   60.4839 C.2       1 <0>        -0.1540 
     22 C15       -10.7937   -9.7769   61.2848 C.2       1 <0>        -0.1540 
     23 C16       -11.3912  -10.6425   60.4127 C.2       1 <0>        -0.0190 
     24 O1        -11.0849  -10.3197   59.1255 O.3       1 <0>        -0.1900 
     25 H1         -5.9531  -11.6482   53.3312 H         1 <0>         0.1150 
     26 H2         -5.9836  -13.9772   52.4810 H         1 <0>         0.1150 
     27 H3         -7.3834  -14.5504   50.5066 H         1 <0>         0.1150 
     28 H4         -8.7958  -12.8241   49.4316 H         1 <0>         0.1150 
     29 H5         -8.7953  -10.5104   50.2594 H         1 <0>         0.1150 
     30 H6         -7.1177   -9.5100   53.4238 H         1 <0>         0.0600 
     31 H7         -6.2819   -9.0734   51.9605 H         1 <0>         0.0600 
     32 H8         -8.3390   -8.3566   50.8507 H         1 <0>         0.0600 
     33 H9         -9.3417   -9.0561   52.1001 H         1 <0>         0.0600 
     34 H10        -7.8904   -6.5061   52.2416 H         1 <0>         0.3800 
     35 H11        -7.9849   -4.0505   56.1145 H         1 <0>         0.3000 
     36 H12        -8.4676   -4.7526   57.6040 H         1 <0>         0.3000 
     37 H13        -9.1690   -6.6599   58.5524 H         1 <0>         0.4842 
     38 H14        -9.4774   -8.0110   60.8139 H         1 <0>         0.1260 
     39 H15       -10.8710   -9.8044   62.3621 H         1 <0>         0.1260 
     40 H16       -12.0381  -11.5000   60.5326 H         1 <0>         0.1420 
@<TRIPOS>BOND
     1    1   25 1    
     2    1    6 ar   
     3    1    2 ar   
     4    2    3 ar   
     5    2   26 1    
     6    3    4 ar   
     7    3   27 1    
     8    4    5 ar   
     9    4   28 1    
    10    5    6 ar   
    11    5   29 1    
    12    6    7 1    
    13    7   31 1    
    14    7   30 1    
    15    7    8 1    
    16    8   33 1    
    17    8   32 1    
    18    8    9 1    
    19    9   34 1    
    20    9   10 1    
    21   10   12 ar   
    22   10   11 ar   
    23   11   17 ar   
    24   12   13 ar   
    25   13   15 ar   
    26   13   14 1    
    27   14   36 1    
    28   14   35 1    
    29   15   17 ar   
    30   15   16 1    
    31   16   19 ar   
    32   16   37 1    
    33   17   18 ar   
    34   18   19 ar   
    35   19   20 1    
    36   20   24 1    
    37   20   21 2    
    38   21   22 1    
    39   21   38 1    
    40   22   23 2    
    41   22   39 1    
    42   23   24 1    
    43   23   40 1    
@<TRIPOS>SUBSTRUCTURE
     1 <0>         1 GROUP             0       ****    0 ROOT    
@<TRIPOS>MOLECULE
xtal-lig.mol2
40   43    1
SMALL
USER_CHARGES


@<TRIPOS>ATOM
      1 C1         -6.5912  -11.9012   52.4968 C.ar      1 <0>        -0.1150 
      2 C2         -6.5970  -13.2208   52.0122 C.ar      1 <0>        -0.1150 
      3 C3         -7.3838  -13.5410   50.8929 C.ar      1 <0>        -0.1150 
      4 C4         -8.1912  -12.5603   50.2845 C.ar      1 <0>        -0.1150 
      5 C5         -8.1912  -11.2444   50.7706 C.ar      1 <0>        -0.1150 
      6 C6         -7.3610  -10.9034   51.8618 C.ar      1 <0>        -0.1150 
      7 C7         -7.2223   -9.4755   52.3394 C.3       1 <0>        -0.0050 
      8 C8         -8.3855   -8.5624   51.9204 C.3       1 <0>         0.0800 
      9 N1         -8.3631   -7.3025   52.6414 N.pl3     1 <0>        -0.7800 
     10 C9         -8.6549   -7.2725   53.9809 C.ar      1 <0>         1.0611 
     11 N2         -9.1898   -8.3541   54.5676 N.ar      1 <0>        -0.7556 
     12 N3         -8.3371   -6.1048   54.6504 N.ar      1 <0>        -0.6857 
     13 C10        -8.5284   -6.0540   55.9342 C.ar      1 <0>         0.8613 
     14 N4         -8.1912   -4.8978   56.6316 N.pl3     1 <0>        -0.3000 
     15 N5         -9.0394   -7.1778   56.5386 N.pl3     1 <0>         0.3832 
     16 N6         -9.3070   -7.3603   57.8316 N.pl3     1 <0>        -1.5710 
     17 C11        -9.3912   -8.3376   55.8925 C.ar      1 <0>         1.0749 
     18 N7         -9.8903   -9.2778   56.7084 N.2       1 <0>        -0.6445 
     19 C12        -9.8269   -8.6475   57.9267 C.ar      1 <0>         0.6921 
     20 C13       -10.2748   -9.2249   59.1842 C.2       1 <0>         0.1230 
     21 C14       -10.0703   -8.8515   60.4839 C.2       1 <0>        -0.1540 
     22 C15       -10.7937   -9.7769   61.2848 C.2       1 <0>        -0.1540 
     23 C16       -11.3912  -10.6425   60.4127 C.2       1 <0>        -0.0190 
     24 O1        -11.0849  -10.3197   59.1255 O.3       1 <0>        -0.1900 
     25 H1         -5.9531  -11.6482   53.3312 H         1 <0>         0.1150 
     26 H2         -5.9836  -13.9772   52.4810 H         1 <0>         0.1150 
     27 H3         -7.3834  -14.5504   50.5066 H         1 <0>         0.1150 
     28 H4         -8.7958  -12.8241   49.4316 H         1 <0>         0.1150 
     29 H5         -8.7953  -10.5104   50.2594 H         1 <0>         0.1150 
     30 H6         -7.1177   -9.5100   53.4238 H         1 <0>         0.0600 
     31 H7         -6.2819   -9.0734   51.9605 H         1 <0>         0.0600 
     32 H8         -8.3390   -8.3566   50.8507 H         1 <0>         0.0600 
     33 H9         -9.3417   -9.0561   52.1001 H         1 <0>         0.0600 
     34 H10        -7.8904   -6.5061   52.2416 H         1 <0>         0.3800 
     35 H11        -7.9849   -4.0505   56.1145 H         1 <0>         0.3000 
     36 H12        -8.4676   -4.7526   57.6040 H         1 <0>         0.3000 
     37 H13        -9.1690   -6.6599   58.5524 H         1 <0>         0.4842 
     38 H14        -9.4774   -8.0110   60.8139 H         1 <0>         0.1260 
     39 H15       -10.8710   -9.8044   62.3621 H         1 <0>         0.1260 
     40 H16       -12.0381  -11.5000   60.5326 H         1 <0>         0.1420 
@<TRIPOS>BOND
     1    1   25 1    
     2    1    6 ar   
     3    1    2 ar   
     4    2    3 ar   
     5    2   26 1    
     6    3    4 ar   
     7    3   27 1    
     8    4    5 ar   
     9    4   28 1    
    10    5    6 ar   
    11    5   29 1    
    12    6    7 1    
    13    7   31 1    
    14    7   30 1    
    15    7    8 1    
    16    8   33 1    
    17    8   32 1    
    18    8    9 1    
    19    9   34 1    
    20    9   10 1    
    21   10   12 ar   
    22   10   11 ar   
    23   11   17 ar   
    24   12   13 ar   
    25   13   15 ar   
    26   13   14 1    
    27   14   36 1    
    28   14   35 1    
    29   15   17 ar   
    30   15   16 1    
    31   16   19 ar   
    32   16   37 1    
    33   17   18 ar   
    34   18   19 ar   
    35   19   20 1    
    36   20   24 1    
    37   20   21 2    
    38   21   22 1    
    39   21   38 1    
    40   22   23 2    
    41   22   39 1    
    42   23   24 1    
    43   23   40 1    
@<TRIPOS>SUBSTRUCTURE
     1 <0>         1 GROUP             0       ****    0 ROOT    
@<TRIPOS>MOLECULE
xtal-lig.mol2
40   43    1
SMALL
USER_CHARGES


@<TRIPOS>ATOM
      1 C1         -6.5912  -11.9012   52.4968 C.ar      1 <0>        -0.1150 
      2 C2         -6.5970  -13.2208   52.0122 C.ar      1 <0>        -0.1150 
      3 C3         -7.3838  -13.5410   50.8929 C.ar      1 <0>        -0.1150 
      4 C4         -8.1912  -12.5603   50.2845 C.ar      1 <0>        -0.1150 
      5 C5         -8.1912  -11.2444   50.7706 C.ar      1 <0>        -0.1150 
      6 C6         -7.3610  -10.9034   51.8618 C.ar      1 <0>        -0.1150 
      7 C7         -7.2223   -9.4755   52.3394 C.3       1 <0>        -0.0050 
      8 C8         -8.3855   -8.5624   51.9204 C.3       1 <0>         0.0800 
      9 N1         -8.3631   -7.3025   52.6414 N.pl3     1 <0>        -0.7800 
     10 C9         -8.6549   -7.2725   53.9809 C.ar      1 <0>         1.0611 
     11 N2         -9.1898   -8.3541   54.5676 N.ar      1 <0>        -0.7556 
     12 N3         -8.3371   -6.1048   54.6504 N.ar      1 <0>        -0.6857 
     13 C10        -8.5284   -6.0540   55.9342 C.ar      1 <0>         0.8613 
     14 N4         -8.1912   -4.8978   56.6316 N.pl3     1 <0>        -0.3000 
     15 N5         -9.0394   -7.1778   56.5386 N.pl3     1 <0>         0.3832 
     16 N6         -9.3070   -7.3603   57.8316 N.pl3     1 <0>        -1.5710 
     17 C11        -9.3912   -8.3376   55.8925 C.ar      1 <0>         1.0749 
     18 N7         -9.8903   -9.2778   56.7084 N.2       1 <0>        -0.6445 
     19 C12        -9.8269   -8.6475   57.9267 C.ar      1 <0>         0.6921 
     20 C13       -10.2748   -9.2249   59.1842 C.2       1 <0>         0.1230 
     21 C14       -10.0703   -8.8515   60.4839 C.2       1 <0>        -0.1540 
     22 C15       -10.7937   -9.7769   61.2848 C.2       1 <0>        -0.1540 
     23 C16       -11.3912  -10.6425   60.4127 C.2       1 <0>        -0.0190 
     24 O1        -11.0849  -10.3197   59.1255 O.3       1 <0>        -0.1900 
     25 H1         -5.9531  -11.6482   53.3312 H         1 <0>         0.1150 
     26 H2         -5.9836  -13.9772   52.4810 H         1 <0>         0.1150 
     27 H3         -7.3834  -14.5504   50.5066 H         1 <0>         0.1150 
     28 H4         -8.7958  -12.8241   49.4316 H         1 <0>         0.1150 
     29 H5         -8.7953  -10.5104   50.2594 H         1 <0>         0.1150 
     30 H6         -7.1177   -9.5100   53.4238 H         1 <0>         0.0600 
     31 H7         -6.2819   -9.0734   51.9605 H         1 <0>         0.0600 
     32 H8         -8.3390   -8.3566   50.8507 H         1 <0>         0.0600 
     33 H9         -9.3417   -9.0561   52.1001 H         1 <0>         0.0600 
     34 H10        -7.8904   -6.5061   52.2416 H         1 <0>         0.3800 
     35 H11        -7.9849   -4.0505   56.1145 H         1 <0>         0.3000 
     36 H12        -8.4676   -4.7526   57.6040 H         1 <0>         0.3000 
     37 H13        -9.1690   -6.6599   58.5524 H         1 <0>         0.4842 
     38 H14        -9.4774   -8.0110   60.8139 H         1 <0>         0.1260 
     39 H15       -10.8710   -9.8044   62.3621 H         1 <0>         0.1260 
     40 H16       -12.0381  -11.5000   60.5326 H         1 <0>         0.1420 
@<TRIPOS>BOND
     1    1   25 1    
     2    1    6 ar   
     3    1    2 ar   
     4    2    3 ar   
     5    2   26 1    
     6    3    4 ar   
     7    3   27 1    
     8    4    5 ar   
     9    4   28 1    
    10    5    6 ar   
    11    5   29 1    
    12    6    7 1    
    13    7   31 1    
    14    7   30 1    
    15    7    8 1    
    16    8   33 1    
    17    8   32 1    
    18    8    9 1    
    19    9   34 1    
    20    9   10 1    
    21   10   12 ar   
    22   10   11 ar   
    23   11   17 ar   
    24   12   13 ar   
    25   13   15 ar   
    26   13   14 1    
    27   14   36 1    
    28   14   35 1    
    29   15   17 ar   
    30   15   16 1    
    31   16   19 ar   
    32   16   37 1    
    33   17   18 ar   
    34   18   19 ar   
    35   19   20 1    
    36   20   24 1    
    37   20   21 2    
    38   21   22 1    
    39   21   38 1    
    40   22   23 2    
    41   22   39 1    
    42   23   24 1    
    43   23   40 1    
@<TRIPOS>SUBSTRUCTURE
     1 <0>         1 GROUP             0       ****    0 ROOT    
@<TRIPOS>MOLECULE
xtal-lig.mol2
40   43    1
SMALL
USER_CHARGES


@<TRIPOS>ATOM
      1 C1         -7.3694  -11.9916   52.4935 C.ar      1 <0>        -0.1150 
      2 C2         -6.7872  -13.2266   52.1444 C.ar      1 <0>        -0.1150 
      3 C3         -6.9912  -13.7601   50.8579 C.ar      1 <0>        -0.1150 
      4 C4         -7.7912  -13.0629   49.9294 C.ar      1 <0>        -0.1150 
      5 C5         -8.3863  -11.8369   50.2826 C.ar      1 <0>        -0.1150 
      6 C6         -8.1571  -11.2832   51.5577 C.ar      1 <0>        -0.1150 
      7 C7         -8.7457   -9.9319   51.9155 C.3       1 <0>        -0.0050 
      8 C8         -7.6579   -8.9019   52.2908 C.3       1 <0>         0.0800 
      9 N1         -8.1944   -7.6222   52.7511 N.pl3     1 <0>        -0.7800 
     10 C9         -8.5234   -7.4989   54.0812 C.ar      1 <0>         1.0611 
     11 N2         -9.0372   -8.5590   54.7181 N.ar      1 <0>        -0.7556 
     12 N3         -8.2782   -6.2738   54.6912 N.ar      1 <0>        -0.6857 
     13 C10        -8.5207   -6.1473   55.9664 C.ar      1 <0>         0.8613 
     14 N4         -8.1911   -4.9603   56.6316 N.pl3     1 <0>        -0.3000 
     15 N5         -9.0512   -7.2443   56.6082 N.pl3     1 <0>         0.3832 
     16 N6         -9.3912   -7.3603   57.8938 N.pl3     1 <0>        -1.5710 
     17 C11        -9.3391   -8.4519   56.0181 C.ar      1 <0>         1.0749 
     18 N7         -9.8697   -9.3532   56.8574 N.2       1 <0>        -0.6445 
     19 C12        -9.8997   -8.6487   58.0342 C.ar      1 <0>         0.6921 
     20 C13       -10.3910   -9.1860   59.2938 C.2       1 <0>         0.1230 
     21 C14       -10.9913  -10.3679   59.6289 C.2       1 <0>        -0.1540 
     22 C15       -11.2464  -10.3062   61.0271 C.2       1 <0>        -0.1540 
     23 C16       -10.7749   -9.0933   61.4429 C.2       1 <0>        -0.0190 
     24 O1        -10.2553   -8.3948   60.3967 O.3       1 <0>        -0.1900 
     25 H1         -7.1989  -11.5861   53.4801 H         1 <0>         0.1150 
     26 H2         -6.1788  -13.7623   52.8586 H         1 <0>         0.1150 
     27 H3         -6.5471  -14.7068   50.5860 H         1 <0>         0.1150 
     28 H4         -7.9628  -13.4796   48.9474 H         1 <0>         0.1150 
     29 H5         -8.9921  -11.3153   49.5558 H         1 <0>         0.1150 
     30 H6         -9.3380   -9.5523   51.0817 H         1 <0>         0.0600 
     31 H7         -9.4464  -10.1009   52.7305 H         1 <0>         0.0600 
     32 H8         -7.0019   -9.3033   53.0649 H         1 <0>         0.0600 
     33 H9         -7.0214   -8.7169   51.4250 H         1 <0>         0.0600 
     34 H10        -7.7749   -6.8027   52.3382 H         1 <0>         0.3800 
     35 H11        -7.9517   -4.1316   56.0996 H         1 <0>         0.3000 
     36 H12        -8.4750   -4.7873   57.5971 H         1 <0>         0.3000 
     37 H13        -9.3054   -6.6245   58.5877 H         1 <0>         0.4842 
     38 H14       -11.2226  -11.1737   58.9487 H         1 <0>         0.1260 
     39 H15       -11.7114  -11.0566   61.6499 H         1 <0>         0.1260 
     40 H16       -10.7335   -8.5912   62.3986 H         1 <0>         0.1420 
@<TRIPOS>BOND
     1    1   25 1    
     2    1    6 ar   
     3    1    2 ar   
     4    2    3 ar   
     5    2   26 1    
     6    3    4 ar   
     7    3   27 1    
     8    4    5 ar   
     9    4   28 1    
    10    5    6 ar   
    11    5   29 1    
    12    6    7 1    
    13    7   31 1    
    14    7   30 1    
    15    7    8 1    
    16    8   33 1    
    17    8   32 1    
    18    8    9 1    
    19    9   34 1    
    20    9   10 1    
    21   10   12 ar   
    22   10   11 ar   
    23   11   17 ar   
    24   12   13 ar   
    25   13   15 ar   
    26   13   14 1    
    27   14   36 1    
    28   14   35 1    
    29   15   17 ar   
    30   15   16 1    
    31   16   19 ar   
    32   16   37 1    
    33   17   18 ar   
    34   18   19 ar   
    35   19   20 1    
    36   20   24 1    
    37   20   21 2    
    38   21   22 1    
    39   21   38 1    
    40   22   23 2    
    41   22   39 1    
    42   23   24 1    
    43   23   40 1    
@<TRIPOS>SUBSTRUCTURE
     1 <0>         1 GROUP             0       ****    0 ROOT    
@<TRIPOS>MOLECULE
xtal-lig.mol2
40   43    1
SMALL
USER_CHARGES


@<TRIPOS>ATOM
      1 C1         -7.3694  -11.9916   52.4935 C.ar      1 <0>        -0.1150 
      2 C2         -6.7872  -13.2266   52.1444 C.ar      1 <0>        -0.1150 
      3 C3         -6.9912  -13.7601   50.8579 C.ar      1 <0>        -0.1150 
      4 C4         -7.7912  -13.0629   49.9294 C.ar      1 <0>        -0.1150 
      5 C5         -8.3863  -11.8369   50.2826 C.ar      1 <0>        -0.1150 
      6 C6         -8.1571  -11.2832   51.5577 C.ar      1 <0>        -0.1150 
      7 C7         -8.7457   -9.9319   51.9155 C.3       1 <0>        -0.0050 
      8 C8         -7.6579   -8.9019   52.2908 C.3       1 <0>         0.0800 
      9 N1         -8.1944   -7.6222   52.7511 N.pl3     1 <0>        -0.7800 
     10 C9         -8.5234   -7.4989   54.0812 C.ar      1 <0>         1.0611 
     11 N2         -9.0372   -8.5590   54.7181 N.ar      1 <0>        -0.7556 
     12 N3         -8.2782   -6.2738   54.6912 N.ar      1 <0>        -0.6857 
     13 C10        -8.5207   -6.1473   55.9664 C.ar      1 <0>         0.8613 
     14 N4         -8.1911   -4.9603   56.6316 N.pl3     1 <0>        -0.3000 
     15 N5         -9.0512   -7.2443   56.6082 N.pl3     1 <0>         0.3832 
     16 N6         -9.3912   -7.3603   57.8938 N.pl3     1 <0>        -1.5710 
     17 C11        -9.3391   -8.4519   56.0181 C.ar      1 <0>         1.0749 
     18 N7         -9.8697   -9.3532   56.8574 N.2       1 <0>        -0.6445 
     19 C12        -9.8997   -8.6487   58.0342 C.ar      1 <0>         0.6921 
     20 C13       -10.3910   -9.1860   59.2938 C.2       1 <0>         0.1230 
     21 C14       -10.9913  -10.3679   59.6289 C.2       1 <0>        -0.1540 
     22 C15       -11.2464  -10.3062   61.0271 C.2       1 <0>        -0.1540 
     23 C16       -10.7749   -9.0933   61.4429 C.2       1 <0>        -0.0190 
     24 O1        -10.2553   -8.3948   60.3967 O.3       1 <0>        -0.1900 
     25 H1         -7.1989  -11.5861   53.4801 H         1 <0>         0.1150 
     26 H2         -6.1788  -13.7623   52.8586 H         1 <0>         0.1150 
     27 H3         -6.5471  -14.7068   50.5860 H         1 <0>         0.1150 
     28 H4         -7.9628  -13.4796   48.9474 H         1 <0>         0.1150 
     29 H5         -8.9921  -11.3153   49.5558 H         1 <0>         0.1150 
     30 H6         -9.3380   -9.5523   51.0817 H         1 <0>         0.0600 
     31 H7         -9.4464  -10.1009   52.7305 H         1 <0>         0.0600 
     32 H8         -7.0019   -9.3033   53.0649 H         1 <0>         0.0600 
     33 H9         -7.0214   -8.7169   51.4250 H         1 <0>         0.0600 
     34 H10        -7.7749   -6.8027   52.3382 H         1 <0>         0.3800 
     35 H11        -7.9517   -4.1316   56.0996 H         1 <0>         0.3000 
     36 H12        -8.4750   -4.7873   57.5971 H         1 <0>         0.3000 
     37 H13        -9.3054   -6.6245   58.5877 H         1 <0>         0.4842 
     38 H14       -11.2226  -11.1737   58.9487 H         1 <0>         0.1260 
     39 H15       -11.7114  -11.0566   61.6499 H         1 <0>         0.1260 
     40 H16       -10.7335   -8.5912   62.3986 H         1 <0>         0.1420 
@<TRIPOS>BOND
     1    1   25 1    
     2    1    6 ar   
     3    1    2 ar   
     4    2    3 ar   
     5    2   26 1    
     6    3    4 ar   
     7    3   27 1    
     8    4    5 ar   
     9    4   28 1    
    10    5    6 ar   
    11    5   29 1    
    12    6    7 1    
    13    7   31 1    
    14    7   30 1    
    15    7    8 1    
    16    8   33 1    
    17    8   32 1    
    18    8    9 1    
    19    9   34 1    
    20    9   10 1    
    21   10   12 ar   
    22   10   11 ar   
    23   11   17 ar   
    24   12   13 ar   
    25   13   15 ar   
    26   13   14 1    
    27   14   36 1    
    28   14   35 1    
    29   15   17 ar   
    30   15   16 1    
    31   16   19 ar   
    32   16   37 1    
    33   17   18 ar   
    34   18   19 ar   
    35   19   20 1    
    36   20   24 1    
    37   20   21 2    
    38   21   22 1    
    39   21   38 1    
    40   22   23 2    
    41   22   39 1    
    42   23   24 1    
    43   23   40 1    
@<TRIPOS>SUBSTRUCTURE
     1 <0>         1 GROUP             0       ****    0 ROOT    
@<TRIPOS>MOLECULE
xtal-lig.mol2
40   43    1
SMALL
USER_CHARGES


@<TRIPOS>ATOM
      1 C1         -7.3694  -11.9916   52.4935 C.ar      1 <0>        -0.1150 
      2 C2         -6.7872  -13.2266   52.1444 C.ar      1 <0>        -0.1150 
      3 C3         -6.9912  -13.7601   50.8579 C.ar      1 <0>        -0.1150 
      4 C4         -7.7912  -13.0629   49.9294 C.ar      1 <0>        -0.1150 
      5 C5         -8.3863  -11.8369   50.2826 C.ar      1 <0>        -0.1150 
      6 C6         -8.1571  -11.2832   51.5577 C.ar      1 <0>        -0.1150 
      7 C7         -8.7457   -9.9319   51.9155 C.3       1 <0>        -0.0050 
      8 C8         -7.6579   -8.9019   52.2908 C.3       1 <0>         0.0800 
      9 N1         -8.1944   -7.6222   52.7511 N.pl3     1 <0>        -0.7800 
     10 C9         -8.5234   -7.4989   54.0812 C.ar      1 <0>         1.0611 
     11 N2         -9.0372   -8.5590   54.7181 N.ar      1 <0>        -0.7556 
     12 N3         -8.2782   -6.2738   54.6912 N.ar      1 <0>        -0.6857 
     13 C10        -8.5207   -6.1473   55.9664 C.ar      1 <0>         0.8613 
     14 N4         -8.1911   -4.9603   56.6316 N.pl3     1 <0>        -0.3000 
     15 N5         -9.0512   -7.2443   56.6082 N.pl3     1 <0>         0.3832 
     16 N6         -9.3912   -7.3603   57.8938 N.pl3     1 <0>        -1.5710 
     17 C11        -9.3391   -8.4519   56.0181 C.ar      1 <0>         1.0749 
     18 N7         -9.8697   -9.3532   56.8574 N.2       1 <0>        -0.6445 
     19 C12        -9.8997   -8.6487   58.0342 C.ar      1 <0>         0.6921 
     20 C13       -10.3910   -9.1860   59.2938 C.2       1 <0>         0.1230 
     21 C14       -10.9913  -10.3679   59.6289 C.2       1 <0>        -0.1540 
     22 C15       -11.2464  -10.3062   61.0271 C.2       1 <0>        -0.1540 
     23 C16       -10.7749   -9.0933   61.4429 C.2       1 <0>        -0.0190 
     24 O1        -10.2553   -8.3948   60.3967 O.3       1 <0>        -0.1900 
     25 H1         -7.1989  -11.5861   53.4801 H         1 <0>         0.1150 
     26 H2         -6.1788  -13.7623   52.8586 H         1 <0>         0.1150 
     27 H3         -6.5471  -14.7068   50.5860 H         1 <0>         0.1150 
     28 H4         -7.9628  -13.4796   48.9474 H         1 <0>         0.1150 
     29 H5         -8.9921  -11.3153   49.5558 H         1 <0>         0.1150 
     30 H6         -9.3380   -9.5523   51.0817 H         1 <0>         0.0600 
     31 H7         -9.4464  -10.1009   52.7305 H         1 <0>         0.0600 
     32 H8         -7.0019   -9.3033   53.0649 H         1 <0>         0.0600 
     33 H9         -7.0214   -8.7169   51.4250 H         1 <0>         0.0600 
     34 H10        -7.7749   -6.8027   52.3382 H         1 <0>         0.3800 
     35 H11        -7.9517   -4.1316   56.0996 H         1 <0>         0.3000 
     36 H12        -8.4750   -4.7873   57.5971 H         1 <0>         0.3000 
     37 H13        -9.3054   -6.6245   58.5877 H         1 <0>         0.4842 
     38 H14       -11.2226  -11.1737   58.9487 H         1 <0>         0.1260 
     39 H15       -11.7114  -11.0566   61.6499 H         1 <0>         0.1260 
     40 H16       -10.7335   -8.5912   62.3986 H         1 <0>         0.1420 
@<TRIPOS>BOND
     1    1   25 1    
     2    1    6 ar   
     3    1    2 ar   
     4    2    3 ar   
     5    2   26 1    
     6    3    4 ar   
     7    3   27 1    
     8    4    5 ar   
     9    4   28 1    
    10    5    6 ar   
    11    5   29 1    
    12    6    7 1    
    13    7   31 1    
    14    7   30 1    
    15    7    8 1    
    16    8   33 1    
    17    8   32 1    
    18    8    9 1    
    19    9   34 1    
    20    9   10 1    
    21   10   12 ar   
    22   10   11 ar   
    23   11   17 ar   
    24   12   13 ar   
    25   13   15 ar   
    26   13   14 1    
    27   14   36 1    
    28   14   35 1    
    29   15   17 ar   
    30   15   16 1    
    31   16   19 ar   
    32   16   37 1    
    33   17   18 ar   
    34   18   19 ar   
    35   19   20 1    
    36   20   24 1    
    37   20   21 2    
    38   21   22 1    
    39   21   38 1    
    40   22   23 2    
    41   22   39 1    
    42   23   24 1    
    43   23   40 1    
@<TRIPOS>SUBSTRUCTURE
     1 <0>         1 GROUP             0       ****    0 ROOT    
