@<TRIPOS>MOLECULE
JIN_600_2HZI
44   47    1
SMALL
USER_CHARGES


@<TRIPOS>ATOM
      1 C1          9.0510   11.8102    1.6562 C.3       1 <0>        -0.0650 
      2 C2         15.4311   16.1978    5.5352 C.3       1 <0>        -0.1100 
      3 C3         22.6290   17.7345    4.9557 C.ar      1 <0>        -0.1150 
      4 C4         22.3373   16.6922    5.8560 C.ar      1 <0>        -0.1150 
      5 C5         21.7874   17.9661    3.8514 C.ar      1 <0>        -0.1150 
      6 C6         12.1165   13.7665    4.0140 C.ar      1 <0>        -0.1150 
      7 C7         10.7707   14.1521    4.1520 C.ar      1 <0>        -0.1150 
      8 C8         11.4740   12.1367    2.3212 C.ar      1 <0>        -0.1150 
      9 C9         18.8210   14.4305    3.7413 C.ar      1 <0>        -0.1150 
     10 C10        17.2913   12.6551    2.8227 C.ar      1 <0>         0.6530 
     11 C11        10.1229   12.5112    2.4659 C.ar      1 <0>        -0.1150 
     12 C12        12.4803   12.7634    3.0844 C.ar      1 <0>         0.2000 
     13 C13         9.7750   13.5312    3.3756 C.ar      1 <0>         0.2200 
     14 C14        21.1751   15.9145    5.6843 C.ar      1 <0>         0.1800 
     15 C15        20.6368   17.1795    3.6587 C.ar      1 <0>         0.1800 
     16 C16        17.5076   13.8697    3.4944 C.ar      1 <0>        -0.4920 
     17 C17        18.9922   15.5284    4.4983 C.ar      1 <0>        -0.0567 
     18 C18        20.3092   16.1756    4.5973 C.ar      1 <0>         0.0000 
     19 C19        16.3810   14.5590    3.9716 C.ar      1 <0>         0.7490 
     20 C20        17.8460   16.1422    5.1778 C.ar      1 <0>         0.5567 
     21 C21        15.0421   12.9128    3.0585 C.ar      1 <0>         0.9663 
     22 N1         16.0504   12.1847    2.5996 N.ar      1 <0>        -0.8390 
     23 N2         15.1446   14.0787    3.6989 N.ar      1 <0>        -0.8390 
     24 N3         13.8008   12.3324    2.9038 N.pl3     1 <0>        -0.7043 
     25 N4         16.6088   15.6526    4.8647 N.pl3     1 <0>        -0.1550 
     26 O1         18.0018   17.0523    5.9964 O.2       1 <0>        -0.5000 
     27 F1          8.4847   13.9227    3.5066 F         1 <0>        -0.2200 
     28 Cl1        20.8308   14.6581    6.8150 Cl        1 <0>        -0.1800 
     29 Cl2        19.6407   17.4536    2.2701 Cl        1 <0>        -0.1800 
     30 H1          9.4721   11.0100    1.0467 H         1 <0>         0.0600 
     31 H2          8.5519   12.5189    0.9948 H         1 <0>         0.0600 
     32 H3          8.3048   11.3719    2.3189 H         1 <0>         0.0600 
     33 H4         15.6326   17.1221    6.0643 H         1 <0>         0.0600 
     34 H5         14.6356   16.4149    4.8231 H         1 <0>         0.0600 
     35 H6         15.0519   15.4748    6.2577 H         1 <0>         0.0600 
     36 H7         23.5120   18.3413    5.1009 H         1 <0>         0.1150 
     37 H8         23.0009   16.4993    6.6887 H         1 <0>         0.1150 
     38 H9         22.0318   18.7481    3.1484 H         1 <0>         0.1150 
     39 H10        12.8520   14.2455    4.6406 H         1 <0>         0.1150 
     40 H11        10.4999   14.9239    4.8582 H         1 <0>         0.1150 
     41 H12        11.7388   11.3520    1.6261 H         1 <0>         0.1150 
     42 H13        19.6493   13.9773    3.2309 H         1 <0>         0.1150 
     43 H14        18.1123   12.0568    2.4653 H         1 <0>         0.0110 
     44 H15        13.8619   11.4166    2.4638 H         1 <0>         0.3800 
@<TRIPOS>BOND
     1    1   11 1    
     2    1   30 1    
     3    1   31 1    
     4    1   32 1    
     5    2   25 1    
     6    2   33 1    
     7    2   34 1    
     8    2   35 1    
     9    3    4 ar   
    10    3    5 ar   
    11    3   36 1    
    12    4   14 ar   
    13    4   37 1    
    14    5   15 ar   
    15    5   38 1    
    16    6    7 ar   
    17    6   12 ar   
    18    6   39 1    
    19    7   13 ar   
    20    7   40 1    
    21    8   11 ar   
    22    8   12 ar   
    23    8   41 1    
    24    9   16 ar   
    25    9   17 ar   
    26    9   42 1    
    27   10   16 ar   
    28   10   22 ar   
    29   10   43 1    
    30   11   13 ar   
    31   12   24 1    
    32   13   27 1    
    33   14   18 ar   
    34   14   28 1    
    35   15   18 ar   
    36   15   29 1    
    37   16   19 ar   
    38   17   18 1    
    39   17   20 ar   
    40   19   23 ar   
    41   19   25 ar   
    42   20   25 ar   
    43   20   26 2    
    44   21   22 ar   
    45   21   23 ar   
    46   21   24 1    
    47   24   44 1    
@<TRIPOS>SUBSTRUCTURE
     1 <0>         1 GROUP             0       ****    0 ROOT    
