@<TRIPOS>MOLECULE
KAW_800_3BKL
69   72    1
SMALL
USER_CHARGES


@<TRIPOS>ATOM
      1 C1         44.1204   41.5788   51.6824 C.ar      1 <0>        -0.1150 
      2 C2         48.1432   46.3848   53.6647 C.ar      1 <0>        -0.1150 
      3 C3         45.4862   41.4392   51.3691 C.ar      1 <0>        -0.1150 
      4 C4         43.2549   42.2258   50.7798 C.ar      1 <0>        -0.1150 
      5 C5         47.7182   45.1570   53.1227 C.ar      1 <0>        -0.1150 
      6 C6         48.1901   47.5309   52.8502 C.ar      1 <0>        -0.1150 
      7 C7         41.8089   49.6098   36.6198 C.ar      1 <0>        -0.1150 
      8 C8         41.0076   48.4794   36.3786 C.ar      1 <0>        -0.1150 
      9 C9         45.9834   41.9406   50.1504 C.ar      1 <0>        -0.1150 
     10 C10        43.7533   42.7431   49.5708 C.ar      1 <0>        -0.1150 
     11 C11        47.3353   45.0744   51.7694 C.ar      1 <0>        -0.1150 
     12 C12        47.8064   47.4456   51.4980 C.ar      1 <0>        -0.1150 
     13 C13        42.6170   49.6728   37.7737 C.ar      1 <0>        -0.1150 
     14 C14        40.9878   47.4236   37.3097 C.ar      1 <0>        -0.1150 
     15 C15        42.9467   47.1467   40.3871 C.ar      1 <0>        -0.1150 
     16 C16        44.7777   47.4705   45.1357 C.3       1 <0>        -0.1200 
     17 C17        45.5964   46.7132   46.2314 C.3       1 <0>        -0.1200 
     18 C18        45.6311   43.0980   47.9100 C.3       1 <0>        -0.0050 
     19 C19        44.3921   49.2539   40.5913 C.3       1 <0>        -0.1200 
     20 C20        45.1174   42.5954   49.2490 C.ar      1 <0>        -0.1150 
     21 C21        47.3602   46.2237   50.9447 C.ar      1 <0>        -0.1150 
     22 C22        42.6436   48.6122   38.7119 C.ar      1 <0>        -0.0550 
     23 C23        41.8015   47.4932   38.4479 C.ar      1 <0>         0.1300 
     24 C24        43.3670   48.3612   39.9532 C.ar      1 <0>         0.0750 
     25 C25        45.4621   48.6010   41.4927 C.3       1 <0>         0.0400 
     26 C26        45.9303   44.6317   47.7921 C.3       1 <0>         0.1400 
     27 C27        45.4598   47.5890   43.7603 C.2       1 <0>         0.5000 
     28 C28        46.9700   46.1572   49.4912 C.2       1 <0>         0.6150 
     29 C29        46.7083   49.5148   41.5276 C.2       1 <0>         0.7000 
     30 C30        44.9512   45.4502   46.8648 C.3       1 <0>         0.5300 
     31 N1         42.0138   46.6354   39.5045 N.pl3     1 <0>        -0.5700 
     32 N2         44.8941   48.3736   42.8312 N.am      1 <0>        -0.5000 
     33 N3         46.1169   45.1845   49.1410 N.am      1 <0>        -0.5000 
     34 O1         44.6079   44.6304   45.7893 O.3       1 <0>        -0.6830 
     35 O2         43.8081   45.8224   47.5799 O.3       1 <0>        -0.6830 
     36 O3         46.5418   50.7143   41.8363 O.co2     1 <0>        -0.8000 
     37 O4         46.5283   47.0236   43.5467 O.2       1 <0>        -0.5000 
     38 O5         47.4088   46.9745   48.6909 O.2       1 <0>        -0.5000 
     39 O6         47.8079   49.0237   41.1798 O.co2     1 <0>        -0.8000 
     40 H1         43.7346   41.1926   52.6144 H         1 <0>         0.1150 
     41 H2         48.4359   46.4478   54.7020 H         1 <0>         0.1150 
     42 H3         46.1493   40.9427   52.0621 H         1 <0>         0.1150 
     43 H4         42.2077   42.3389   51.0166 H         1 <0>         0.1150 
     44 H5         47.6881   44.2751   53.7454 H         1 <0>         0.1150 
     45 H6         48.5160   48.4753   53.2631 H         1 <0>         0.1150 
     46 H7         41.8066   50.4309   35.9163 H         1 <0>         0.1150 
     47 H8         40.3851   48.4481   35.4964 H         1 <0>         0.1150 
     48 H9         47.0303   41.8240   49.9128 H         1 <0>         0.1150 
     49 H10        43.0814   43.2377   48.8823 H         1 <0>         0.1150 
     50 H11        47.0251   44.1182   51.3790 H         1 <0>         0.1150 
     51 H12        47.8080   48.3381   50.8888 H         1 <0>         0.1150 
     52 H13        43.2315   50.5449   37.9431 H         1 <0>         0.1150 
     53 H14        40.3492   46.5649   37.1801 H         1 <0>         0.1150 
     54 H15        43.2996   46.6598   41.2845 H         1 <0>         0.1150 
     55 H16        44.5680   48.4791   45.4939 H         1 <0>         0.0600 
     56 H17        43.8079   47.0083   44.9868 H         1 <0>         0.0600 
     57 H18        46.5890   46.4482   45.8733 H         1 <0>         0.0600 
     58 H19        45.8079   47.4236   47.0166 H         1 <0>         0.0600 
     59 H20        44.9152   42.7329   47.1799 H         1 <0>         0.0600 
     60 H21        46.5476   42.5537   47.6810 H         1 <0>         0.0600 
     61 H22        44.8943   49.7406   39.7534 H         1 <0>         0.0600 
     62 H23        43.8753   50.0557   41.1209 H         1 <0>         0.0600 
     63 H24        45.7641   47.6474   41.0547 H         1 <0>         0.0600 
     64 H25        46.9032   44.6752   47.2980 H         1 <0>         0.0600 
     65 H26        41.5554   45.7371   39.6164 H         1 <0>         0.4200 
     66 H27        44.0575   48.8839   43.0694 H         1 <0>         0.3000 
     67 H28        45.7160   44.6310   49.8843 H         1 <0>         0.3000 
     68 H29        44.2729   43.7997   46.1054 H         1 <0>         0.4180 
     69 H30        43.2491   46.4051   47.0662 H         1 <0>         0.4180 
@<TRIPOS>BOND
     1    1    3 ar   
     2    1    4 ar   
     3    1   40 1    
     4    2    5 ar   
     5    2    6 ar   
     6    2   41 1    
     7    3    9 ar   
     8    3   42 1    
     9    4   10 ar   
    10    4   43 1    
    11    5   11 ar   
    12    5   44 1    
    13    6   12 ar   
    14    6   45 1    
    15    7    8 ar   
    16    7   13 ar   
    17    7   46 1    
    18    8   14 ar   
    19    8   47 1    
    20    9   20 ar   
    21    9   48 1    
    22   10   20 ar   
    23   10   49 1    
    24   11   21 ar   
    25   11   50 1    
    26   12   21 ar   
    27   12   51 1    
    28   13   22 ar   
    29   13   52 1    
    30   14   23 ar   
    31   14   53 1    
    32   15   24 ar   
    33   15   31 ar   
    34   15   54 1    
    35   16   17 1    
    36   16   27 1    
    37   16   55 1    
    38   16   56 1    
    39   17   30 1    
    40   17   57 1    
    41   17   58 1    
    42   18   20 1    
    43   18   26 1    
    44   18   59 1    
    45   18   60 1    
    46   19   24 1    
    47   19   25 1    
    48   19   61 1    
    49   19   62 1    
    50   21   28 1    
    51   22   23 ar   
    52   22   24 ar   
    53   23   31 ar   
    54   25   29 1    
    55   25   32 1    
    56   25   63 1    
    57   26   30 1    
    58   26   33 1    
    59   26   64 1    
    60   27   32 am   BACKBONE|DICT|INTERRES
    61   27   37 2    
    62   28   33 am   BACKBONE|DICT|INTERRES
    63   28   38 2    
    64   29   36 1    
    65   29   39 2    
    66   30   34 1    
    67   30   35 1    
    68   31   65 1    
    69   32   66 1    
    70   33   67 1    
    71   34   68 1    
    72   35   69 1    
@<TRIPOS>SUBSTRUCTURE
     1 <0>         1 GROUP             0       ****    0 ROOT    
@<TRIPOS>MOLECULE
KAW_800_3BKL
69   72    1
SMALL
USER_CHARGES


@<TRIPOS>ATOM
      1 C1         41.4960   48.0802   37.6575 C.ar      1 <0>        -0.1150 
      2 C2         44.4978   54.2962   39.6766 C.ar      1 <0>        -0.1150 
      3 C3         42.8376   48.5061   37.7031 C.ar      1 <0>        -0.1150 
      4 C4         40.9386   47.3920   38.7525 C.ar      1 <0>        -0.1150 
      5 C5         44.9015   53.2896   38.7791 C.ar      1 <0>        -0.1150 
      6 C6         44.2208   53.9712   41.0179 C.ar      1 <0>        -0.1150 
      7 C7         45.1130   38.8389   48.7817 C.ar      1 <0>        -0.1150 
      8 C8         44.5660   38.2913   49.9588 C.ar      1 <0>        -0.1150 
      9 C9         43.6215   48.2449   38.8435 C.ar      1 <0>        -0.1150 
     10 C10        41.7218   47.1305   39.8933 C.ar      1 <0>        -0.1150 
     11 C11        45.0232   51.9577   39.2212 C.ar      1 <0>        -0.1150 
     12 C12        44.3415   52.6394   41.4608 C.ar      1 <0>        -0.1150 
     13 C13        44.9532   40.2095   48.4921 C.ar      1 <0>        -0.1150 
     14 C14        43.8533   39.1146   50.8494 C.ar      1 <0>        -0.1150 
     15 C15        43.2038   42.7089   50.4923 C.ar      1 <0>        -0.1150 
     16 C16        45.1380   47.0530   45.7619 C.3       1 <0>        -0.1200 
     17 C17        44.4161   47.0387   44.3970 C.3       1 <0>        -0.1200 
     18 C18        43.9013   47.2924   41.1855 C.3       1 <0>        -0.0050 
     19 C19        44.2347   43.5234   48.3203 C.3       1 <0>        -0.1200 
     20 C20        43.0649   47.5585   39.9438 C.ar      1 <0>        -0.1150 
     21 C21        44.7332   51.6194   40.5618 C.ar      1 <0>        -0.1150 
     22 C22        44.2449   41.0677   49.3667 C.ar      1 <0>        -0.0550 
     23 C23        43.7023   40.4804   50.5503 C.ar      1 <0>         0.1300 
     24 C24        43.9019   42.4886   49.3555 C.ar      1 <0>         0.0750 
     25 C25        45.2178   44.6352   48.7453 C.3       1 <0>         0.0400 
     26 C26        43.7504   48.3646   42.2951 C.3       1 <0>         0.1400 
     27 C27        44.9256   45.7444   46.5232 C.2       1 <0>         0.5000 
     28 C28        44.8885   50.2002   41.0268 C.2       1 <0>         0.6150 
     29 C29        46.6682   44.1467   48.8031 C.2       1 <0>         0.7000 
     30 C30        44.7654   48.2186   43.4642 C.3       1 <0>         0.5300 
     31 N1         43.0816   41.5287   51.1975 N.pl3     1 <0>        -0.5700 
     32 N2         45.1317   45.7851   47.8471 N.am      1 <0>        -0.5000 
     33 N3         43.8497   49.7075   41.7176 N.am      1 <0>        -0.5000 
     34 O1         46.0537   48.0011   42.9242 O.3       1 <0>        -0.6830 
     35 O2         44.7073   49.4025   44.2338 O.3       1 <0>        -0.6830 
     36 O3         46.8918   42.9762   48.4182 O.co2     1 <0>        -0.8000 
     37 O4         44.6082   44.7222   45.9148 O.2       1 <0>        -0.5000 
     38 O5         45.8909   49.5459   40.7386 O.2       1 <0>        -0.5000 
     39 O6         47.5264   44.9440   49.2389 O.co2     1 <0>        -0.8000 
     40 H1         40.8943   48.2823   36.7837 H         1 <0>         0.1150 
     41 H2         44.4058   55.3175   39.3376 H         1 <0>         0.1150 
     42 H3         43.2649   49.0352   36.8642 H         1 <0>         0.1150 
     43 H4         39.9091   47.0672   38.7193 H         1 <0>         0.1150 
     44 H5         45.1201   53.5385   37.7511 H         1 <0>         0.1150 
     45 H6         43.9193   54.7444   41.7092 H         1 <0>         0.1150 
     46 H7         45.6540   38.2054   48.0943 H         1 <0>         0.1150 
     47 H8         44.6880   37.2400   50.1742 H         1 <0>         0.1150 
     48 H9         44.6480   48.5800   38.8733 H         1 <0>         0.1150 
     49 H10        41.2868   46.6086   40.7333 H         1 <0>         0.1150 
     50 H11        45.3372   51.1945   38.5234 H         1 <0>         0.1150 
     51 H12        44.1378   52.4118   42.4973 H         1 <0>         0.1150 
     52 H13        45.3725   40.6149   47.5830 H         1 <0>         0.1150 
     53 H14        43.4281   38.7022   51.7522 H         1 <0>         0.1150 
     54 H15        42.7995   43.6683   50.7806 H         1 <0>         0.1150 
     55 H16        44.7772   47.8760   46.3790 H         1 <0>         0.0600 
     56 H17        46.2078   47.2107   45.6209 H         1 <0>         0.0600 
     57 H18        44.6475   46.0989   43.8945 H         1 <0>         0.0600 
     58 H19        43.3383   47.0246   44.5675 H         1 <0>         0.0600 
     59 H20        44.9456   47.2173   40.8823 H         1 <0>         0.0600 
     60 H21        43.6275   46.3100   41.5709 H         1 <0>         0.0600 
     61 H22        44.6547   43.0002   47.4601 H         1 <0>         0.0600 
     62 H23        43.3012   43.9643   47.9686 H         1 <0>         0.0600 
     63 H24        44.9544   44.9537   49.7559 H         1 <0>         0.0600 
     64 H25        42.7489   48.2341   42.7097 H         1 <0>         0.0600 
     65 H26        42.5804   41.4693   52.0714 H         1 <0>         0.4200 
     66 H27        45.2251   46.6827   48.3002 H         1 <0>         0.3000 
     67 H28        43.0453   50.3030   41.8446 H         1 <0>         0.3000 
     68 H29        46.2065   48.6550   42.2592 H         1 <0>         0.4180 
     69 H30        43.9869   49.3291   44.8415 H         1 <0>         0.4180 
@<TRIPOS>BOND
     1    1    3 ar   
     2    1    4 ar   
     3    1   40 1    
     4    2    5 ar   
     5    2    6 ar   
     6    2   41 1    
     7    3    9 ar   
     8    3   42 1    
     9    4   10 ar   
    10    4   43 1    
    11    5   11 ar   
    12    5   44 1    
    13    6   12 ar   
    14    6   45 1    
    15    7    8 ar   
    16    7   13 ar   
    17    7   46 1    
    18    8   14 ar   
    19    8   47 1    
    20    9   20 ar   
    21    9   48 1    
    22   10   20 ar   
    23   10   49 1    
    24   11   21 ar   
    25   11   50 1    
    26   12   21 ar   
    27   12   51 1    
    28   13   22 ar   
    29   13   52 1    
    30   14   23 ar   
    31   14   53 1    
    32   15   24 ar   
    33   15   31 ar   
    34   15   54 1    
    35   16   17 1    
    36   16   27 1    
    37   16   55 1    
    38   16   56 1    
    39   17   30 1    
    40   17   57 1    
    41   17   58 1    
    42   18   20 1    
    43   18   26 1    
    44   18   59 1    
    45   18   60 1    
    46   19   24 1    
    47   19   25 1    
    48   19   61 1    
    49   19   62 1    
    50   21   28 1    
    51   22   23 ar   
    52   22   24 ar   
    53   23   31 ar   
    54   25   29 1    
    55   25   32 1    
    56   25   63 1    
    57   26   30 1    
    58   26   33 1    
    59   26   64 1    
    60   27   32 am   BACKBONE|DICT|INTERRES
    61   27   37 2    
    62   28   33 am   BACKBONE|DICT|INTERRES
    63   28   38 2    
    64   29   36 1    
    65   29   39 2    
    66   30   34 1    
    67   30   35 1    
    68   31   65 1    
    69   32   66 1    
    70   33   67 1    
    71   34   68 1    
    72   35   69 1    
@<TRIPOS>SUBSTRUCTURE
     1 <0>         1 GROUP             0       ****    0 ROOT    
@<TRIPOS>MOLECULE
KAW_800_3BKL
69   72    1
SMALL
USER_CHARGES


@<TRIPOS>ATOM
      1 C1         43.7981   41.5048   51.7154 C.ar      1 <0>        -0.1150 
      2 C2         47.2441   46.6790   53.7886 C.ar      1 <0>        -0.1150 
      3 C3         45.1473   41.2233   51.4273 C.ar      1 <0>        -0.1150 
      4 C4         43.0093   42.2038   50.7799 C.ar      1 <0>        -0.1150 
      5 C5         46.7171   45.4272   53.4168 C.ar      1 <0>        -0.1150 
      6 C6         47.7941   47.5281   52.8098 C.ar      1 <0>        -0.1150 
      7 C7         42.2077   50.5040   37.3223 C.ar      1 <0>        -0.1150 
      8 C8         41.5807   49.6843   36.3645 C.ar      1 <0>        -0.1150 
      9 C9         45.7046   41.6396   50.2029 C.ar      1 <0>        -0.1150 
     10 C10        43.5640   42.6234   49.5652 C.ar      1 <0>        -0.1150 
     11 C11        46.7385   45.0235   52.0668 C.ar      1 <0>        -0.1150 
     12 C12        47.8078   47.1273   51.4595 C.ar      1 <0>        -0.1150 
     13 C13        42.5266   49.9919   38.5969 C.ar      1 <0>        -0.1150 
     14 C14        41.2741   48.3478   36.6795 C.ar      1 <0>        -0.1150 
     15 C15        41.8686   46.6421   39.8749 C.ar      1 <0>        -0.1150 
     16 C16        45.0177   47.5545   45.7780 C.3       1 <0>        -0.1200 
     17 C17        45.7195   46.5465   46.7355 C.3       1 <0>        -0.1200 
     18 C18        45.4821   42.7909   47.9431 C.3       1 <0>        -0.0050 
     19 C19        42.8731   48.2665   41.5224 C.3       1 <0>        -0.1200 
     20 C20        44.9097   42.3389   49.2706 C.ar      1 <0>        -0.1150 
     21 C21        47.2753   45.8780   51.0743 C.ar      1 <0>        -0.1150 
     22 C22        42.2138   48.6584   38.9559 C.ar      1 <0>        -0.0550 
     23 C23        41.5864   47.8476   37.9584 C.ar      1 <0>         0.1300 
     24 C24        42.3574   47.8638   40.1736 C.ar      1 <0>         0.0750 
     25 C25        44.1664   47.5821   41.9995 C.3       1 <0>         0.0400 
     26 C26        45.9605   44.2662   47.8748 C.3       1 <0>         0.1400 
     27 C27        45.2556   47.3798   44.2741 C.2       1 <0>         0.5000 
     28 C28        47.2974   45.4728   49.6291 C.2       1 <0>         0.6150 
     29 C29        45.4062   48.0671   41.2147 C.2       1 <0>         0.7000 
     30 C30        44.9913   45.2210   47.1056 C.3       1 <0>         0.5300 
     31 N1         41.4079   46.6237   38.5786 N.pl3     1 <0>        -0.5700 
     32 N2         44.2357   47.6966   43.4639 N.am      1 <0>        -0.5000 
     33 N3         46.2309   44.7757   49.2221 N.am      1 <0>        -0.5000 
     34 O1         44.6079   44.6236   45.9055 O.3       1 <0>        -0.6830 
     35 O2         43.8627   45.4237   47.9252 O.3       1 <0>        -0.6830 
     36 O3         45.7639   49.2570   41.3689 O.co2     1 <0>        -0.8000 
     37 O4         46.3563   47.0236   43.8670 O.2       1 <0>        -0.5000 
     38 O5         48.2073   45.8234   48.8797 O.2       1 <0>        -0.5000 
     39 O6         45.9586   47.2460   40.4492 O.co2     1 <0>        -0.8000 
     40 H1         43.3681   41.1931   52.6559 H         1 <0>         0.1150 
     41 H2         47.2271   46.9875   54.8235 H         1 <0>         0.1150 
     42 H3         45.7529   40.6910   52.1458 H         1 <0>         0.1150 
     43 H4         41.9798   42.4437   50.9911 H         1 <0>         0.1150 
     44 H5         46.2956   44.7748   54.1674 H         1 <0>         0.1150 
     45 H6         48.2001   48.4885   53.0936 H         1 <0>         0.1150 
     46 H7         42.4425   51.5311   37.0805 H         1 <0>         0.1150 
     47 H8         41.3356   50.0838   35.3901 H         1 <0>         0.1150 
     48 H9         46.7406   41.4278   49.9860 H         1 <0>         0.1150 
     49 H10        42.9466   43.1537   48.8543 H         1 <0>         0.1150 
     50 H11        46.3343   44.0562   51.8052 H         1 <0>         0.1150 
     51 H12        48.2080   47.7936   50.7103 H         1 <0>         0.1150 
     52 H13        43.0037   50.6353   39.3217 H         1 <0>         0.1150 
     53 H14        40.7911   47.7284   35.9439 H         1 <0>         0.1150 
     54 H15        41.8168   45.8221   40.5728 H         1 <0>         0.1150 
     55 H16        45.4059   48.5506   45.9797 H         1 <0>         0.0600 
     56 H17        43.9614   47.6129   45.9915 H         1 <0>         0.0600 
     57 H18        46.7003   46.3087   46.3233 H         1 <0>         0.0600 
     58 H19        45.9472   47.0514   47.6693 H         1 <0>         0.0600 
     59 H20        44.7199   42.5961   47.1930 H         1 <0>         0.0600 
     60 H21        46.3153   42.1362   47.6897 H         1 <0>         0.0600 
     61 H22        43.0085   49.3485   41.5400 H         1 <0>         0.0600 
     62 H23        42.0664   48.0598   42.2259 H         1 <0>         0.0600 
     63 H24        44.0699   46.5127   41.8059 H         1 <0>         0.0600 
     64 H25        46.8949   44.2409   47.3104 H         1 <0>         0.0600 
     65 H26        40.9278   45.7993   38.2304 H         1 <0>         0.4200 
     66 H27        43.4077   48.0534   43.9165 H         1 <0>         0.3000 
     67 H28        45.5069   44.5900   49.9006 H         1 <0>         0.3000 
     68 H29        44.3808   43.7124   46.0526 H         1 <0>         0.4180 
     69 H30        43.2494   46.0162   47.4992 H         1 <0>         0.4180 
@<TRIPOS>BOND
     1    1    3 ar   
     2    1    4 ar   
     3    1   40 1    
     4    2    5 ar   
     5    2    6 ar   
     6    2   41 1    
     7    3    9 ar   
     8    3   42 1    
     9    4   10 ar   
    10    4   43 1    
    11    5   11 ar   
    12    5   44 1    
    13    6   12 ar   
    14    6   45 1    
    15    7    8 ar   
    16    7   13 ar   
    17    7   46 1    
    18    8   14 ar   
    19    8   47 1    
    20    9   20 ar   
    21    9   48 1    
    22   10   20 ar   
    23   10   49 1    
    24   11   21 ar   
    25   11   50 1    
    26   12   21 ar   
    27   12   51 1    
    28   13   22 ar   
    29   13   52 1    
    30   14   23 ar   
    31   14   53 1    
    32   15   24 ar   
    33   15   31 ar   
    34   15   54 1    
    35   16   17 1    
    36   16   27 1    
    37   16   55 1    
    38   16   56 1    
    39   17   30 1    
    40   17   57 1    
    41   17   58 1    
    42   18   20 1    
    43   18   26 1    
    44   18   59 1    
    45   18   60 1    
    46   19   24 1    
    47   19   25 1    
    48   19   61 1    
    49   19   62 1    
    50   21   28 1    
    51   22   23 ar   
    52   22   24 ar   
    53   23   31 ar   
    54   25   29 1    
    55   25   32 1    
    56   25   63 1    
    57   26   30 1    
    58   26   33 1    
    59   26   64 1    
    60   27   32 am   BACKBONE|DICT|INTERRES
    61   27   37 2    
    62   28   33 am   BACKBONE|DICT|INTERRES
    63   28   38 2    
    64   29   36 1    
    65   29   39 2    
    66   30   34 1    
    67   30   35 1    
    68   31   65 1    
    69   32   66 1    
    70   33   67 1    
    71   34   68 1    
    72   35   69 1    
@<TRIPOS>SUBSTRUCTURE
     1 <0>         1 GROUP             0       ****    0 ROOT    
@<TRIPOS>MOLECULE
KAW_800_3BKL
69   72    1
SMALL
USER_CHARGES


@<TRIPOS>ATOM
      1 C1         45.7372   38.1256   49.7688 C.ar      1 <0>        -0.1150 
      2 C2         48.1617   47.4136   54.1742 C.ar      1 <0>        -0.1150 
      3 C3         44.6720   38.7412   49.0820 C.ar      1 <0>        -0.1150 
      4 C4         46.4302   38.8336   50.7696 C.ar      1 <0>        -0.1150 
      5 C5         48.8141   47.5182   52.9314 C.ar      1 <0>        -0.1150 
      6 C6         47.2030   46.4034   54.3808 C.ar      1 <0>        -0.1150 
      7 C7         45.4080   51.1932   40.0320 C.ar      1 <0>        -0.1150 
      8 C8         44.8871   50.8990   38.7564 C.ar      1 <0>        -0.1150 
      9 C9         44.2919   40.0592   49.4034 C.ar      1 <0>        -0.1150 
     10 C10        46.0591   40.1560   51.0818 C.ar      1 <0>        -0.1150 
     11 C11        48.4986   46.6190   51.8927 C.ar      1 <0>        -0.1150 
     12 C12        46.8841   45.5077   53.3444 C.ar      1 <0>        -0.1150 
     13 C13        45.6569   50.1599   40.9594 C.ar      1 <0>        -0.1150 
     14 C14        44.6035   49.5657   38.4111 C.ar      1 <0>        -0.1150 
     15 C15        44.8620   46.6231   40.5717 C.ar      1 <0>        -0.1150 
     16 C16        44.4879   45.8481   47.0742 C.3       1 <0>        -0.1200 
     17 C17        45.3334   45.1006   48.1286 C.3       1 <0>        -0.1200 
     18 C18        44.5794   42.1918   50.7664 C.3       1 <0>        -0.0050 
     19 C19        45.7372   47.2880   42.8643 C.3       1 <0>        -0.1200 
     20 C20        44.9862   40.7723   50.4043 C.ar      1 <0>        -0.1150 
     21 C21        47.5231   45.6145   52.0879 C.ar      1 <0>        -0.1150 
     22 C22        45.3454   48.8108   40.6625 C.ar      1 <0>        -0.0550 
     23 C23        44.8183   48.5497   39.3587 C.ar      1 <0>         0.1300 
     24 C24        45.3547   47.5539   41.4218 C.ar      1 <0>         0.0750 
     25 C25        45.0367   48.1000   43.9931 C.3       1 <0>         0.0400 
     26 C26        45.3758   43.2742   49.9862 C.3       1 <0>         0.1400 
     27 C27        45.3165   46.6236   46.0503 C.2       1 <0>         0.5000 
     28 C28        47.2135   44.6397   50.9912 C.2       1 <0>         0.6150 
     29 C29        43.8080   48.8917   43.5493 C.2       1 <0>         0.7000 
     30 C30        44.5525   44.0047   48.8860 C.3       1 <0>         0.5300 
     31 N1         44.5914   47.1915   39.3458 N.pl3     1 <0>        -0.5700 
     32 N2         44.6075   47.2609   45.1132 N.am      1 <0>        -0.5000 
     33 N3         45.9342   44.2393   50.9309 N.am      1 <0>        -0.5000 
     34 O1         44.2079   43.0251   47.9397 O.3       1 <0>        -0.6830 
     35 O2         43.4076   44.5923   49.4744 O.3       1 <0>        -0.6830 
     36 O3         42.8184   48.2238   43.1772 O.co2     1 <0>        -0.8000 
     37 O4         46.5435   46.6236   46.1053 O.2       1 <0>        -0.5000 
     38 O5         48.0815   44.2837   50.1941 O.2       1 <0>        -0.5000 
     39 O6         43.8806   50.1389   43.5765 O.co2     1 <0>        -0.8000 
     40 H1         46.0176   37.1102   49.5281 H         1 <0>         0.1150 
     41 H2         48.4045   48.1041   54.9684 H         1 <0>         0.1150 
     42 H3         44.1424   38.1992   48.3123 H         1 <0>         0.1150 
     43 H4         47.2415   38.3602   51.3018 H         1 <0>         0.1150 
     44 H5         49.5631   48.2831   52.7788 H         1 <0>         0.1150 
     45 H6         46.7108   46.3022   55.3367 H         1 <0>         0.1150 
     46 H7         45.6108   52.2180   40.3069 H         1 <0>         0.1150 
     47 H8         44.6915   51.6965   38.0530 H         1 <0>         0.1150 
     48 H9         43.4652   40.5195   48.8796 H         1 <0>         0.1150 
     49 H10        46.5920   40.6930   51.8533 H         1 <0>         0.1150 
     50 H11        49.0120   46.7013   50.9450 H         1 <0>         0.1150 
     51 H12        46.1529   44.7339   53.5321 H         1 <0>         0.1150 
     52 H13        46.0314   50.4124   41.9411 H         1 <0>         0.1150 
     53 H14        44.1906   49.3288   37.4424 H         1 <0>         0.1150 
     54 H15        44.6852   45.5915   40.8310 H         1 <0>         0.1150 
     55 H16        43.8160   46.5461   47.5761 H         1 <0>         0.0600 
     56 H17        43.8560   45.1532   46.5202 H         1 <0>         0.0600 
     57 H18        46.2102   44.6425   47.6666 H         1 <0>         0.0600 
     58 H19        45.7163   45.8468   48.8248 H         1 <0>         0.0600 
     59 H20        44.7156   42.3083   51.8430 H         1 <0>         0.0600 
     60 H21        43.5058   42.2994   50.6092 H         1 <0>         0.0600 
     61 H22        45.5842   46.2245   43.0499 H         1 <0>         0.0600 
     62 H23        46.8142   47.4357   42.9490 H         1 <0>         0.0600 
     63 H24        45.7377   48.8450   44.3595 H         1 <0>         0.0600 
     64 H25        46.2129   42.7723   49.4963 H         1 <0>         0.0600 
     65 H26        44.1926   46.6688   38.5798 H         1 <0>         0.4200 
     66 H27        43.6010   47.2785   45.2683 H         1 <0>         0.3000 
     67 H28        45.2833   44.6349   51.5938 H         1 <0>         0.3000 
     68 H29        44.9685   42.7618   47.4381 H         1 <0>         0.4180 
     69 H30        42.8626   44.9481   48.7799 H         1 <0>         0.4180 
@<TRIPOS>BOND
     1    1    3 ar   
     2    1    4 ar   
     3    1   40 1    
     4    2    5 ar   
     5    2    6 ar   
     6    2   41 1    
     7    3    9 ar   
     8    3   42 1    
     9    4   10 ar   
    10    4   43 1    
    11    5   11 ar   
    12    5   44 1    
    13    6   12 ar   
    14    6   45 1    
    15    7    8 ar   
    16    7   13 ar   
    17    7   46 1    
    18    8   14 ar   
    19    8   47 1    
    20    9   20 ar   
    21    9   48 1    
    22   10   20 ar   
    23   10   49 1    
    24   11   21 ar   
    25   11   50 1    
    26   12   21 ar   
    27   12   51 1    
    28   13   22 ar   
    29   13   52 1    
    30   14   23 ar   
    31   14   53 1    
    32   15   24 ar   
    33   15   31 ar   
    34   15   54 1    
    35   16   17 1    
    36   16   27 1    
    37   16   55 1    
    38   16   56 1    
    39   17   30 1    
    40   17   57 1    
    41   17   58 1    
    42   18   20 1    
    43   18   26 1    
    44   18   59 1    
    45   18   60 1    
    46   19   24 1    
    47   19   25 1    
    48   19   61 1    
    49   19   62 1    
    50   21   28 1    
    51   22   23 ar   
    52   22   24 ar   
    53   23   31 ar   
    54   25   29 1    
    55   25   32 1    
    56   25   63 1    
    57   26   30 1    
    58   26   33 1    
    59   26   64 1    
    60   27   32 am   BACKBONE|DICT|INTERRES
    61   27   37 2    
    62   28   33 am   BACKBONE|DICT|INTERRES
    63   28   38 2    
    64   29   36 1    
    65   29   39 2    
    66   30   34 1    
    67   30   35 1    
    68   31   65 1    
    69   32   66 1    
    70   33   67 1    
    71   34   68 1    
    72   35   69 1    
@<TRIPOS>SUBSTRUCTURE
     1 <0>         1 GROUP             0       ****    0 ROOT    
@<TRIPOS>MOLECULE
KAW_800_3BKL
69   72    1
SMALL
USER_CHARGES


@<TRIPOS>ATOM
      1 C1         45.7622   37.9302   49.6274 C.ar      1 <0>        -0.1150 
      2 C2         49.2004   47.3394   53.1961 C.ar      1 <0>        -0.1150 
      3 C3         44.7351   38.6036   48.9383 C.ar      1 <0>        -0.1150 
      4 C4         46.4485   38.5787   50.6728 C.ar      1 <0>        -0.1150 
      5 C5         48.0106   47.1572   53.9247 C.ar      1 <0>        -0.1150 
      6 C6         49.4050   46.6232   52.0026 C.ar      1 <0>        -0.1150 
      7 C7         42.9914   47.7033   38.9496 C.ar      1 <0>        -0.1150 
      8 C8         43.7725   48.2239   37.8999 C.ar      1 <0>        -0.1150 
      9 C9         44.3869   39.9193   49.2997 C.ar      1 <0>        -0.1150 
     10 C10        46.1103   39.9006   51.0247 C.ar      1 <0>        -0.1150 
     11 C11        47.0294   46.2589   53.4600 C.ar      1 <0>        -0.1150 
     12 C12        48.4211   45.7301   51.5324 C.ar      1 <0>        -0.1150 
     13 C13        43.5781   47.4158   40.1986 C.ar      1 <0>        -0.1150 
     14 C14        45.1483   48.4424   38.0933 C.ar      1 <0>        -0.1150 
     15 C15        47.0734   47.8437   41.1616 C.ar      1 <0>        -0.1150 
     16 C16        44.5069   45.8240   47.1472 C.3       1 <0>        -0.1200 
     17 C17        45.3505   45.0610   48.1993 C.3       1 <0>        -0.1200 
     18 C18        44.7062   41.9974   50.7266 C.3       1 <0>        -0.0050 
     19 C19        45.5158   46.9955   42.9693 C.3       1 <0>        -0.1200 
     20 C20        45.0761   40.5745   50.3408 C.ar      1 <0>        -0.1150 
     21 C21        47.2197   45.5331   52.2589 C.ar      1 <0>        -0.1150 
     22 C22        44.9546   47.6471   40.4382 C.ar      1 <0>        -0.0550 
     23 C23        45.7216   48.1493   39.3441 C.ar      1 <0>         0.1300 
     24 C24        45.8418   47.4918   41.5916 C.ar      1 <0>         0.0750 
     25 C25        45.0209   48.0046   44.0213 C.3       1 <0>         0.0400 
     26 C26        45.4701   43.0676   49.8919 C.3       1 <0>         0.1400 
     27 C27        45.3282   46.6236   46.1379 C.2       1 <0>         0.5000 
     28 C28        46.1240   44.6241   51.7573 C.2       1 <0>         0.6150 
     29 C29        43.8440   48.8443   43.5242 C.2       1 <0>         0.7000 
     30 C30        44.5921   43.9128   48.9078 C.3       1 <0>         0.5300 
     31 N1         47.0078   48.2238   39.8373 N.pl3     1 <0>        -0.5700 
     32 N2         44.6079   47.2932   45.2285 N.am      1 <0>        -0.5000 
     33 N3         46.4075   43.8779   50.6772 N.am      1 <0>        -0.5000 
     34 O1         44.2079   43.0186   47.8951 O.3       1 <0>        -0.6830 
     35 O2         43.4569   44.4481   49.5570 O.3       1 <0>        -0.6830 
     36 O3         44.0101   50.0803   43.4431 O.co2     1 <0>        -0.8000 
     37 O4         46.5565   46.6236   46.1786 O.2       1 <0>        -0.5000 
     38 O5         45.0263   44.6232   52.3111 O.2       1 <0>        -0.5000 
     39 O6         42.8044   48.2236   43.2139 O.co2     1 <0>        -0.8000 
     40 H1         46.0190   36.9160   49.3580 H         1 <0>         0.1150 
     41 H2         49.9538   48.0315   53.5471 H         1 <0>         0.1150 
     42 H3         44.2078   38.1076   48.1380 H         1 <0>         0.1150 
     43 H4         47.2293   38.0599   51.2099 H         1 <0>         0.1150 
     44 H5         47.8476   47.7120   54.8373 H         1 <0>         0.1150 
     45 H6         50.3172   46.7679   51.4422 H         1 <0>         0.1150 
     46 H7         41.9356   47.5278   38.8027 H         1 <0>         0.1150 
     47 H8         43.3182   48.4474   36.9459 H         1 <0>         0.1150 
     48 H9         43.5865   40.4257   48.7798 H         1 <0>         0.1150 
     49 H10        46.6387   40.3923   51.8287 H         1 <0>         0.1150 
     50 H11        46.1180   46.1439   54.0302 H         1 <0>         0.1150 
     51 H12        48.6074   45.2148   50.6027 H         1 <0>         0.1150 
     52 H13        42.9598   47.0239   40.9926 H         1 <0>         0.1150 
     53 H14        45.7564   48.8239   37.2867 H         1 <0>         0.1150 
     54 H15        47.9611   47.8114   41.7750 H         1 <0>         0.1150 
     55 H16        43.8079   46.5037   47.6299 H         1 <0>         0.0600 
     56 H17        43.8951   45.1333   46.5667 H         1 <0>         0.0600 
     57 H18        46.2421   44.6397   47.7318 H         1 <0>         0.0600 
     58 H19        45.7104   45.7844   48.9321 H         1 <0>         0.0600 
     59 H20        44.8901   42.1069   51.7950 H         1 <0>         0.0600 
     60 H21        43.6277   42.1123   50.6131 H         1 <0>         0.0600 
     61 H22        44.7559   46.2237   42.8507 H         1 <0>         0.0600 
     62 H23        46.4083   46.5053   43.3561 H         1 <0>         0.0600 
     63 H24        45.8079   48.7104   44.2575 H         1 <0>         0.0600 
     64 H25        46.1700   42.5195   49.2585 H         1 <0>         0.0600 
     65 H26        47.8193   48.5010   39.3062 H         1 <0>         0.4200 
     66 H27        43.6050   47.3448   45.4119 H         1 <0>         0.3000 
     67 H28        47.3438   43.9483   50.3118 H         1 <0>         0.3000 
     68 H29        44.9573   42.7397   47.3849 H         1 <0>         0.4180 
     69 H30        42.8943   44.8263   48.8908 H         1 <0>         0.4180 
@<TRIPOS>BOND
     1    1    3 ar   
     2    1    4 ar   
     3    1   40 1    
     4    2    5 ar   
     5    2    6 ar   
     6    2   41 1    
     7    3    9 ar   
     8    3   42 1    
     9    4   10 ar   
    10    4   43 1    
    11    5   11 ar   
    12    5   44 1    
    13    6   12 ar   
    14    6   45 1    
    15    7    8 ar   
    16    7   13 ar   
    17    7   46 1    
    18    8   14 ar   
    19    8   47 1    
    20    9   20 ar   
    21    9   48 1    
    22   10   20 ar   
    23   10   49 1    
    24   11   21 ar   
    25   11   50 1    
    26   12   21 ar   
    27   12   51 1    
    28   13   22 ar   
    29   13   52 1    
    30   14   23 ar   
    31   14   53 1    
    32   15   24 ar   
    33   15   31 ar   
    34   15   54 1    
    35   16   17 1    
    36   16   27 1    
    37   16   55 1    
    38   16   56 1    
    39   17   30 1    
    40   17   57 1    
    41   17   58 1    
    42   18   20 1    
    43   18   26 1    
    44   18   59 1    
    45   18   60 1    
    46   19   24 1    
    47   19   25 1    
    48   19   61 1    
    49   19   62 1    
    50   21   28 1    
    51   22   23 ar   
    52   22   24 ar   
    53   23   31 ar   
    54   25   29 1    
    55   25   32 1    
    56   25   63 1    
    57   26   30 1    
    58   26   33 1    
    59   26   64 1    
    60   27   32 am   BACKBONE|DICT|INTERRES
    61   27   37 2    
    62   28   33 am   BACKBONE|DICT|INTERRES
    63   28   38 2    
    64   29   36 1    
    65   29   39 2    
    66   30   34 1    
    67   30   35 1    
    68   31   65 1    
    69   32   66 1    
    70   33   67 1    
    71   34   68 1    
    72   35   69 1    
@<TRIPOS>SUBSTRUCTURE
     1 <0>         1 GROUP             0       ****    0 ROOT    
@<TRIPOS>MOLECULE
KAW_800_3BKL
69   72    1
SMALL
USER_CHARGES


@<TRIPOS>ATOM
      1 C1         47.3008   35.7855   49.2666 C.ar      1 <0>        -0.1150 
      2 C2         44.1823   42.4229   57.2432 C.ar      1 <0>        -0.1150 
      3 C3         46.4255   36.6355   48.5632 C.ar      1 <0>        -0.1150 
      4 C4         47.2163   35.6935   50.6694 C.ar      1 <0>        -0.1150 
      5 C5         44.7908   43.3529   56.3792 C.ar      1 <0>        -0.1150 
      6 C6         43.8059   41.1560   56.7587 C.ar      1 <0>        -0.1150 
      7 C7         50.6302   47.2143   53.7629 C.ar      1 <0>        -0.1150 
      8 C8         50.0644   46.8238   54.9924 C.ar      1 <0>        -0.1150 
      9 C9         45.4654   37.3927   49.2619 C.ar      1 <0>        -0.1150 
     10 C10        46.2564   36.4503   51.3688 C.ar      1 <0>        -0.1150 
     11 C11        45.0183   43.0181   55.0299 C.ar      1 <0>        -0.1150 
     12 C12        44.0322   40.8206   55.4094 C.ar      1 <0>        -0.1150 
     13 C13        49.9244   47.0159   52.5585 C.ar      1 <0>        -0.1150 
     14 C14        48.7896   46.2294   55.0200 C.ar      1 <0>        -0.1150 
     15 C15        46.6174   45.5322   52.1453 C.ar      1 <0>        -0.1150 
     16 C16        45.1062   42.4025   49.8659 C.3       1 <0>        -0.1200 
     17 C17        43.7521   41.8967   50.4089 C.3       1 <0>        -0.1200 
     18 C18        44.3273   38.1000   51.4240 C.3       1 <0>        -0.0050 
     19 C19        47.7932   46.2745   50.0216 C.3       1 <0>        -0.1200 
     20 C20        45.3759   37.3001   50.6673 C.ar      1 <0>        -0.1150 
     21 C21        44.6306   41.7546   54.5309 C.ar      1 <0>        -0.1150 
     22 C22        48.6390   46.4238   52.5491 C.ar      1 <0>        -0.0550 
     23 C23        48.0949   46.0386   53.8123 C.ar      1 <0>         0.1300 
     24 C24        47.6754   46.0793   51.5052 C.ar      1 <0>         0.0750 
     25 C25        46.5588   45.8981   49.1745 C.3       1 <0>         0.0400 
     26 C26        44.5301   39.6357   51.3585 C.3       1 <0>         0.1400 
     27 C27        45.1419   43.9284   49.7794 C.2       1 <0>         0.5000 
     28 C28        44.8990   41.4011   53.0966 C.2       1 <0>         0.6150 
     29 C29        46.7237   46.2700   47.6980 C.2       1 <0>         0.7000 
     30 C30        43.5698   40.3637   50.3756 C.3       1 <0>         0.5300 
     31 N1         46.8613   45.5038   53.5035 N.pl3     1 <0>        -0.5700 
     32 N2         46.2623   44.4709   49.2821 N.am      1 <0>        -0.5000 
     33 N3         44.4056   40.2198   52.6965 N.am      1 <0>        -0.5000 
     34 O1         43.8295   39.9067   49.0632 O.3       1 <0>        -0.6830 
     35 O2         42.2457   40.0825   50.7814 O.3       1 <0>        -0.6830 
     36 O3         45.8864   45.7999   46.8942 O.co2     1 <0>        -0.8000 
     37 O4         44.1844   44.5907   50.1797 O.2       1 <0>        -0.5000 
     38 O5         45.4927   42.1821   52.3527 O.2       1 <0>        -0.5000 
     39 O6         47.6864   47.0073   47.3949 O.co2     1 <0>        -0.8000 
     40 H1         48.0358   35.2034   48.7306 H         1 <0>         0.1150 
     41 H2         44.0092   42.6794   58.2780 H         1 <0>         0.1150 
     42 H3         46.4890   36.7052   47.4873 H         1 <0>         0.1150 
     43 H4         47.8855   35.0401   51.2094 H         1 <0>         0.1150 
     44 H5         45.0855   44.3232   56.7510 H         1 <0>         0.1150 
     45 H6         43.3467   40.4389   57.4231 H         1 <0>         0.1150 
     46 H7         51.6119   47.6640   53.7409 H         1 <0>         0.1150 
     47 H8         50.6107   46.9746   55.9118 H         1 <0>         0.1150 
     48 H9         44.7937   38.0379   48.7148 H         1 <0>         0.1150 
     49 H10        46.1913   36.3702   52.4442 H         1 <0>         0.1150 
     50 H11        45.4893   43.7394   54.3773 H         1 <0>         0.1150 
     51 H12        43.7489   39.8384   55.0593 H         1 <0>         0.1150 
     52 H13        50.3728   47.3144   51.6223 H         1 <0>         0.1150 
     53 H14        48.3501   45.9244   55.9579 H         1 <0>         0.1150 
     54 H15        45.7302   45.1662   51.6494 H         1 <0>         0.1150 
     55 H16        45.2992   41.9941   48.8737 H         1 <0>         0.0600 
     56 H17        45.9199   42.0653   50.5089 H         1 <0>         0.0600 
     57 H18        43.6367   42.2530   51.4331 H         1 <0>         0.0600 
     58 H19        42.9465   42.3650   49.8410 H         1 <0>         0.0600 
     59 H20        44.3319   37.7697   52.4628 H         1 <0>         0.0600 
     60 H21        43.3484   37.8318   51.0263 H         1 <0>         0.0600 
     61 H22        48.0238   47.3267   49.8489 H         1 <0>         0.0600 
     62 H23        48.6672   45.7217   49.6748 H         1 <0>         0.0600 
     63 H24        45.7046   46.4672   49.5470 H         1 <0>         0.0600 
     64 H25        45.5494   39.7927   51.0006 H         1 <0>         0.0600 
     65 H26        46.2026   45.1188   54.1642 H         1 <0>         0.4200 
     66 H27        46.9839   43.8616   48.9248 H         1 <0>         0.3000 
     67 H28        43.8813   39.6784   53.3672 H         1 <0>         0.3000 
     68 H29        43.1781   40.2799   48.4891 H         1 <0>         0.4180 
     69 H30        41.6525   40.4697   50.1553 H         1 <0>         0.4180 
@<TRIPOS>BOND
     1    1    3 ar   
     2    1    4 ar   
     3    1   40 1    
     4    2    5 ar   
     5    2    6 ar   
     6    2   41 1    
     7    3    9 ar   
     8    3   42 1    
     9    4   10 ar   
    10    4   43 1    
    11    5   11 ar   
    12    5   44 1    
    13    6   12 ar   
    14    6   45 1    
    15    7    8 ar   
    16    7   13 ar   
    17    7   46 1    
    18    8   14 ar   
    19    8   47 1    
    20    9   20 ar   
    21    9   48 1    
    22   10   20 ar   
    23   10   49 1    
    24   11   21 ar   
    25   11   50 1    
    26   12   21 ar   
    27   12   51 1    
    28   13   22 ar   
    29   13   52 1    
    30   14   23 ar   
    31   14   53 1    
    32   15   24 ar   
    33   15   31 ar   
    34   15   54 1    
    35   16   17 1    
    36   16   27 1    
    37   16   55 1    
    38   16   56 1    
    39   17   30 1    
    40   17   57 1    
    41   17   58 1    
    42   18   20 1    
    43   18   26 1    
    44   18   59 1    
    45   18   60 1    
    46   19   24 1    
    47   19   25 1    
    48   19   61 1    
    49   19   62 1    
    50   21   28 1    
    51   22   23 ar   
    52   22   24 ar   
    53   23   31 ar   
    54   25   29 1    
    55   25   32 1    
    56   25   63 1    
    57   26   30 1    
    58   26   33 1    
    59   26   64 1    
    60   27   32 am   BACKBONE|DICT|INTERRES
    61   27   37 2    
    62   28   33 am   BACKBONE|DICT|INTERRES
    63   28   38 2    
    64   29   36 1    
    65   29   39 2    
    66   30   34 1    
    67   30   35 1    
    68   31   65 1    
    69   32   66 1    
    70   33   67 1    
    71   34   68 1    
    72   35   69 1    
@<TRIPOS>SUBSTRUCTURE
     1 <0>         1 GROUP             0       ****    0 ROOT    
@<TRIPOS>MOLECULE
KAW_800_3BKL
69   72    1
SMALL
USER_CHARGES


@<TRIPOS>ATOM
      1 C1         41.6422   47.8829   37.6745 C.ar      1 <0>        -0.1150 
      2 C2         45.1187   54.2052   39.5005 C.ar      1 <0>        -0.1150 
      3 C3         41.1182   47.1966   38.7869 C.ar      1 <0>        -0.1150 
      4 C4         42.9606   48.3769   37.7094 C.ar      1 <0>        -0.1150 
      5 C5         44.1581   53.2249   39.1874 C.ar      1 <0>        -0.1150 
      6 C6         46.1667   53.9026   40.3902 C.ar      1 <0>        -0.1150 
      7 C7         45.0872   39.0179   48.7386 C.ar      1 <0>        -0.1150 
      8 C8         44.5127   38.4496   49.8925 C.ar      1 <0>        -0.1150 
      9 C9         41.9122   47.0034   39.9338 C.ar      1 <0>        -0.1150 
     10 C10        43.7553   48.1840   38.8559 C.ar      1 <0>        -0.1150 
     11 C11        44.2425   51.9440   39.7676 C.ar      1 <0>        -0.1150 
     12 C12        46.2515   52.6223   40.9714 C.ar      1 <0>        -0.1150 
     13 C13        44.9380   40.3944   48.4720 C.ar      1 <0>        -0.1150 
     14 C14        43.7830   39.2582   50.7830 C.ar      1 <0>        -0.1150 
     15 C15        43.1526   42.8609   50.4812 C.ar      1 <0>        -0.1150 
     16 C16        45.4938   46.9724   45.6546 C.3       1 <0>        -0.1200 
     17 C17        44.6175   47.0994   44.3895 C.3       1 <0>        -0.1200 
     18 C18        44.1029   47.2700   41.1989 C.3       1 <0>        -0.0050 
     19 C19        44.2337   43.7134   48.3485 C.3       1 <0>        -0.1200 
     20 C20        43.2349   47.4942   39.9708 C.ar      1 <0>        -0.1150 
     21 C21        45.2823   51.6355   40.6729 C.ar      1 <0>        -0.1150 
     22 C22        44.2133   41.2380   49.3473 C.ar      1 <0>        -0.0550 
     23 C23        43.6429   40.6300   50.5071 C.ar      1 <0>         0.1300 
     24 C24        43.8750   42.6600   49.3560 C.ar      1 <0>         0.0750 
     25 C25        45.1428   44.8599   48.8408 C.3       1 <0>         0.0400 
     26 C26        44.0151   48.4023   42.2544 C.3       1 <0>         0.1400 
     27 C27        45.0614   45.7891   46.5207 C.2       1 <0>         0.5000 
     28 C28        45.3746   50.2599   41.2671 C.2       1 <0>         0.6150 
     29 C29        46.5525   44.3797   49.1984 C.2       1 <0>         0.7000 
     30 C30        45.0127   48.2490   43.4375 C.3       1 <0>         0.5300 
     31 N1         43.0114   41.6678   51.1606 N.pl3     1 <0>        -0.5700 
     32 N2         45.2345   45.9240   47.8430 N.am      1 <0>        -0.5000 
     33 N3         44.2030   49.7065   41.6137 N.am      1 <0>        -0.5000 
     34 O1         46.2994   47.9814   42.9163 O.3       1 <0>        -0.6830 
     35 O2         44.9830   49.4494   44.1826 O.3       1 <0>        -0.6830 
     36 O3         47.1327   44.9652   50.1411 O.co2     1 <0>        -0.8000 
     37 O4         44.6077   44.7732   45.9936 O.2       1 <0>        -0.5000 
     38 O5         46.4596   49.6877   41.3731 O.2       1 <0>        -0.5000 
     39 O6         47.0308   43.4451   48.5202 O.co2     1 <0>        -0.8000 
     40 H1         41.0339   48.0294   36.7942 H         1 <0>         0.1150 
     41 H2         45.0544   55.1868   39.0545 H         1 <0>         0.1150 
     42 H3         40.1077   46.8164   38.7599 H         1 <0>         0.1150 
     43 H4         43.3641   48.9012   36.8558 H         1 <0>         0.1150 
     44 H5         43.3568   53.4538   38.5004 H         1 <0>         0.1150 
     45 H6         46.9089   54.6515   40.6242 H         1 <0>         0.1150 
     46 H7         45.6412   38.3958   48.0511 H         1 <0>         0.1150 
     47 H8         44.6267   37.3939   50.0902 H         1 <0>         0.1150 
     48 H9         41.5052   46.4708   40.7809 H         1 <0>         0.1150 
     49 H10        44.7684   48.5587   38.8744 H         1 <0>         0.1150 
     50 H11        43.5010   51.1989   39.5167 H         1 <0>         0.1150 
     51 H12        47.0709   52.4045   41.6414 H         1 <0>         0.1150 
     52 H13        45.3785   40.8156   47.5804 H         1 <0>         0.1150 
     53 H14        43.3368   38.8299   51.6681 H         1 <0>         0.1150 
     54 H15        42.7451   43.8160   50.7790 H         1 <0>         0.1150 
     55 H16        45.4366   47.8807   46.2546 H         1 <0>         0.0600 
     56 H17        46.5404   46.8439   45.3768 H         1 <0>         0.0600 
     57 H18        44.6533   46.1529   43.8490 H         1 <0>         0.0600 
     58 H19        43.5768   47.2273   44.6920 H         1 <0>         0.0600 
     59 H20        45.1348   47.1504   40.8688 H         1 <0>         0.0600 
     60 H21        43.8159   46.3169   41.6438 H         1 <0>         0.0600 
     61 H22        44.7289   43.2122   47.5156 H         1 <0>         0.0600 
     62 H23        43.3085   44.1200   47.9383 H         1 <0>         0.0600 
     63 H24        44.7096   45.2679   49.7562 H         1 <0>         0.0600 
     64 H25        43.0053   48.3560   42.6666 H         1 <0>         0.0600 
     65 H26        42.4908   41.5933   52.0220 H         1 <0>         0.4200 
     66 H27        45.4333   46.8397   48.2194 H         1 <0>         0.3000 
     67 H28        43.3605   50.2200   41.4031 H         1 <0>         0.3000 
     68 H29        46.2331   47.2330   42.3431 H         1 <0>         0.4180 
     69 H30        45.0173   50.1767   43.5795 H         1 <0>         0.4180 
@<TRIPOS>BOND
     1    1    3 ar   
     2    1    4 ar   
     3    1   40 1    
     4    2    5 ar   
     5    2    6 ar   
     6    2   41 1    
     7    3    9 ar   
     8    3   42 1    
     9    4   10 ar   
    10    4   43 1    
    11    5   11 ar   
    12    5   44 1    
    13    6   12 ar   
    14    6   45 1    
    15    7    8 ar   
    16    7   13 ar   
    17    7   46 1    
    18    8   14 ar   
    19    8   47 1    
    20    9   20 ar   
    21    9   48 1    
    22   10   20 ar   
    23   10   49 1    
    24   11   21 ar   
    25   11   50 1    
    26   12   21 ar   
    27   12   51 1    
    28   13   22 ar   
    29   13   52 1    
    30   14   23 ar   
    31   14   53 1    
    32   15   24 ar   
    33   15   31 ar   
    34   15   54 1    
    35   16   17 1    
    36   16   27 1    
    37   16   55 1    
    38   16   56 1    
    39   17   30 1    
    40   17   57 1    
    41   17   58 1    
    42   18   20 1    
    43   18   26 1    
    44   18   59 1    
    45   18   60 1    
    46   19   24 1    
    47   19   25 1    
    48   19   61 1    
    49   19   62 1    
    50   21   28 1    
    51   22   23 ar   
    52   22   24 ar   
    53   23   31 ar   
    54   25   29 1    
    55   25   32 1    
    56   25   63 1    
    57   26   30 1    
    58   26   33 1    
    59   26   64 1    
    60   27   32 am   BACKBONE|DICT|INTERRES
    61   27   37 2    
    62   28   33 am   BACKBONE|DICT|INTERRES
    63   28   38 2    
    64   29   36 1    
    65   29   39 2    
    66   30   34 1    
    67   30   35 1    
    68   31   65 1    
    69   32   66 1    
    70   33   67 1    
    71   34   68 1    
    72   35   69 1    
@<TRIPOS>SUBSTRUCTURE
     1 <0>         1 GROUP             0       ****    0 ROOT    
@<TRIPOS>MOLECULE
KAW_800_3BKL
69   72    1
SMALL
USER_CHARGES


@<TRIPOS>ATOM
      1 C1         45.1197   41.2975   52.1736 C.ar      1 <0>        -0.1150 
      2 C2         47.1869   46.4418   53.9925 C.ar      1 <0>        -0.1150 
      3 C3         46.3798   41.3088   51.5434 C.ar      1 <0>        -0.1150 
      4 C4         43.9855   41.7767   51.4900 C.ar      1 <0>        -0.1150 
      5 C5         46.4271   45.3553   53.5193 C.ar      1 <0>        -0.1150 
      6 C6         47.9763   47.1891   53.0983 C.ar      1 <0>        -0.1150 
      7 C7         42.4860   49.0129   37.3327 C.ar      1 <0>        -0.1150 
      8 C8         42.2079   50.2774   36.7799 C.ar      1 <0>        -0.1150 
      9 C9         46.5062   41.7994   50.2290 C.ar      1 <0>        -0.1150 
     10 C10        44.1097   42.2633   50.1750 C.ar      1 <0>        -0.1150 
     11 C11        46.4452   45.0236   52.1502 C.ar      1 <0>        -0.1150 
     12 C12        47.9919   46.8574   51.7295 C.ar      1 <0>        -0.1150 
     13 C13        43.3254   48.8958   38.4598 C.ar      1 <0>        -0.1150 
     14 C14        42.8030   51.4236   37.3346 C.ar      1 <0>        -0.1150 
     15 C15        44.9465   51.6017   40.3025 C.ar      1 <0>        -0.1150 
     16 C16        44.6116   47.2482   45.5940 C.3       1 <0>        -0.1200 
     17 C17        45.5820   46.4580   46.5173 C.3       1 <0>        -0.1200 
     18 C18        45.4968   42.8093   48.1209 C.3       1 <0>        -0.0050 
     19 C19        45.0528   49.3210   41.4120 C.3       1 <0>        -0.1200 
     20 C20        45.3705   42.2761   49.5406 C.ar      1 <0>        -0.1150 
     21 C21        47.2088   45.7919   51.2370 C.ar      1 <0>        -0.1150 
     22 C22        43.8950   50.0344   39.0829 C.ar      1 <0>        -0.0550 
     23 C23        43.6381   51.2937   38.4586 C.ar      1 <0>         0.1300 
     24 C24        44.6796   50.2738   40.3007 C.ar      1 <0>         0.0750 
     25 C25        43.8328   48.8597   42.2436 C.3       1 <0>         0.0400 
     26 C26        45.9276   44.3065   47.9704 C.3       1 <0>         0.1400 
     27 C27        45.0071   47.6557   44.1720 C.2       1 <0>         0.5000 
     28 C28        47.2296   45.4682   49.7692 C.2       1 <0>         0.6150 
     29 C29        42.9277   47.8226   41.5796 C.2       1 <0>         0.7000 
     30 C30        44.9512   45.1560   47.1034 C.3       1 <0>         0.5300 
     31 N1         44.3524   52.2016   39.2097 N.pl3     1 <0>        -0.5700 
     32 N2         44.0806   48.4553   43.6239 N.am      1 <0>        -0.5000 
     33 N3         46.1087   44.9211   49.2872 N.am      1 <0>        -0.5000 
     34 O1         44.6079   44.4078   45.9798 O.3       1 <0>        -0.6830 
     35 O2         43.8089   45.4236   47.8875 O.3       1 <0>        -0.6830 
     36 O3         41.7064   48.0817   41.5306 O.co2     1 <0>        -0.8000 
     37 O4         46.0154   47.2371   43.6033 O.2       1 <0>        -0.5000 
     38 O5         48.2077   45.7271   49.0713 O.2       1 <0>        -0.5000 
     39 O6         43.4616   46.7643   41.1782 O.co2     1 <0>        -0.8000 
     40 H1         45.0224   40.9256   53.1830 H         1 <0>         0.1150 
     41 H2         47.1706   46.6960   55.0423 H         1 <0>         0.1150 
     42 H3         47.2496   40.9477   52.0721 H         1 <0>         0.1150 
     43 H4         43.0195   41.7758   51.9741 H         1 <0>         0.1150 
     44 H5         45.8267   44.7764   54.2060 H         1 <0>         0.1150 
     45 H6         48.5720   48.0145   53.4618 H         1 <0>         0.1150 
     46 H7         42.0435   48.1281   36.9012 H         1 <0>         0.1150 
     47 H8         41.5592   50.3683   35.9201 H         1 <0>         0.1150 
     48 H9         47.4765   41.8245   49.7554 H         1 <0>         0.1150 
     49 H10        43.2339   42.6289   49.6569 H         1 <0>         0.1150 
     50 H11        45.8531   44.1860   51.8135 H         1 <0>         0.1150 
     51 H12        48.6077   47.4235   51.0492 H         1 <0>         0.1150 
     52 H13        43.5062   47.9152   38.8724 H         1 <0>         0.1150 
     53 H14        42.6120   52.3957   36.9051 H         1 <0>         0.1150 
     54 H15        45.4839   52.1126   41.0883 H         1 <0>         0.1150 
     55 H16        44.2183   48.1292   46.0881 H         1 <0>         0.0600 
     56 H17        43.7506   46.6235   45.4138 H         1 <0>         0.0600 
     57 H18        46.4990   46.2235   45.9795 H         1 <0>         0.0600 
     58 H19        45.9060   47.0900   47.3406 H         1 <0>         0.0600 
     59 H20        44.5361   42.6142   47.6450 H         1 <0>         0.0600 
     60 H21        46.2069   42.1837   47.5799 H         1 <0>         0.0600 
     61 H22        45.5846   48.4658   40.9937 H         1 <0>         0.0600 
     62 H23        45.7598   49.8294   42.0685 H         1 <0>         0.0600 
     63 H24        43.2161   49.7513   42.3709 H         1 <0>         0.0600 
     64 H25        46.8894   44.2890   47.4536 H         1 <0>         0.0600 
     65 H26        44.3547   53.2015   39.0510 H         1 <0>         0.4200 
     66 H27        43.3174   48.6819   44.2458 H         1 <0>         0.3000 
     67 H28        45.3273   44.8186   49.9168 H         1 <0>         0.3000 
     68 H29        44.4989   43.4907   46.2004 H         1 <0>         0.4180 
     69 H30        43.2045   45.9879   47.4127 H         1 <0>         0.4180 
@<TRIPOS>BOND
     1    1    3 ar   
     2    1    4 ar   
     3    1   40 1    
     4    2    5 ar   
     5    2    6 ar   
     6    2   41 1    
     7    3    9 ar   
     8    3   42 1    
     9    4   10 ar   
    10    4   43 1    
    11    5   11 ar   
    12    5   44 1    
    13    6   12 ar   
    14    6   45 1    
    15    7    8 ar   
    16    7   13 ar   
    17    7   46 1    
    18    8   14 ar   
    19    8   47 1    
    20    9   20 ar   
    21    9   48 1    
    22   10   20 ar   
    23   10   49 1    
    24   11   21 ar   
    25   11   50 1    
    26   12   21 ar   
    27   12   51 1    
    28   13   22 ar   
    29   13   52 1    
    30   14   23 ar   
    31   14   53 1    
    32   15   24 ar   
    33   15   31 ar   
    34   15   54 1    
    35   16   17 1    
    36   16   27 1    
    37   16   55 1    
    38   16   56 1    
    39   17   30 1    
    40   17   57 1    
    41   17   58 1    
    42   18   20 1    
    43   18   26 1    
    44   18   59 1    
    45   18   60 1    
    46   19   24 1    
    47   19   25 1    
    48   19   61 1    
    49   19   62 1    
    50   21   28 1    
    51   22   23 ar   
    52   22   24 ar   
    53   23   31 ar   
    54   25   29 1    
    55   25   32 1    
    56   25   63 1    
    57   26   30 1    
    58   26   33 1    
    59   26   64 1    
    60   27   32 am   BACKBONE|DICT|INTERRES
    61   27   37 2    
    62   28   33 am   BACKBONE|DICT|INTERRES
    63   28   38 2    
    64   29   36 1    
    65   29   39 2    
    66   30   34 1    
    67   30   35 1    
    68   31   65 1    
    69   32   66 1    
    70   33   67 1    
    71   34   68 1    
    72   35   69 1    
@<TRIPOS>SUBSTRUCTURE
     1 <0>         1 GROUP             0       ****    0 ROOT    
