@<TRIPOS>MOLECULE
HUX_803_1E66
40   43    1
SMALL
USER_CHARGES


@<TRIPOS>ATOM
      1 C1          2.0306   58.8047   77.8183 C.3       1 <0>        -0.1800 
      2 C2          2.3996   63.5702   71.2205 C.ar      1 <0>        -0.2060 
      3 C3          1.4293   62.8208   71.9096 C.ar      1 <0>        -0.1673 
      4 C4          3.5804   61.5191   70.6555 C.ar      1 <0>        -0.4407 
      5 C5          2.2076   57.1867   72.1189 C.3       1 <0>        -0.0050 
      6 C6          0.0507   56.8855   73.3687 C.3       1 <0>        -0.1200 
      7 C7          2.2246   56.4895   74.6133 C.3       1 <0>        -0.1200 
      8 C8          0.7358   58.4308   75.1789 C.2       1 <0>        -0.1150 
      9 C9          2.4608   57.6641   76.8810 C.3       1 <0>        -0.1200 
     10 C10         3.4897   62.9199   70.6213 C.ar      1 <0>         0.2755 
     11 C11         1.5486   61.4115   72.0005 C.ar      1 <0>        -0.1736 
     12 C12         2.6232   60.7502   71.3417 C.ar      1 <0>         0.7341 
     13 C13         1.9283   58.6798   72.1189 C.ar      1 <0>         0.3705 
     14 C14         0.8571   59.2365   72.8557 C.ar      1 <0>        -0.4029 
     15 C15         0.6439   60.6323   72.7654 C.ar      1 <0>         0.3811 
     16 C16         1.4972   56.4024   73.2439 C.3       1 <0>        -0.0600 
     17 C17         0.0655   58.3536   73.8204 C.3       1 <0>         0.0550 
     18 C18         1.7322   57.5971   75.5445 C.2       1 <0>         0.0000 
     19 N1         -0.4133   61.2261   73.4627 N.pl3     1 <0>        -0.9200 
     20 N2          2.7791   59.4136   71.3775 N.ar      1 <0>        -0.7311 
     21 Cl1         4.7413   63.8290   69.8735 Cl        1 <0>        -0.1800 
     22 H1          2.6025   58.7762   78.7445 H         1 <0>         0.0600 
     23 H2          2.1983   59.7809   77.3630 H         1 <0>         0.0600 
     24 H3          0.9772   58.7273   78.0852 H         1 <0>         0.0600 
     25 H4          2.3288   64.6487   71.1784 H         1 <0>         0.1554 
     26 H5          0.6164   63.3453   72.3875 H         1 <0>         0.1528 
     27 H6          4.4157   61.0283   70.1815 H         1 <0>         0.2022 
     28 H7          1.8638   56.8041   71.1570 H         1 <0>         0.0600 
     29 H8          3.2830   57.0295   72.1319 H         1 <0>         0.0600 
     30 H9         -0.4578   56.7794   72.4173 H         1 <0>         0.0600 
     31 H10        -0.5003   56.2675   74.0781 H         1 <0>         0.0600 
     32 H11         2.1028   55.5453   75.1433 H         1 <0>         0.0600 
     33 H12         3.2932   56.6256   74.4547 H         1 <0>         0.0600 
     34 H13         0.3994   59.2237   75.8305 H         1 <0>         0.1150 
     35 H14         3.5288   57.7574   76.6820 H         1 <0>         0.0600 
     36 H15         2.3272   56.7099   77.3904 H         1 <0>         0.0600 
     37 H16         1.5027   55.3529   72.9482 H         1 <0>         0.0600 
     38 H17        -0.9655   58.6948   73.9064 H         1 <0>         0.0600 
     39 H18        -0.9431   60.6845   74.1285 H         1 <0>         0.3600 
     40 H19        -0.4503   62.2277   73.5935 H         1 <0>         0.3600 
@<TRIPOS>BOND
     1    1    9 1    
     2    1   22 1    
     3    1   23 1    
     4    1   24 1    
     5    2    3 ar   
     6    2   10 ar   
     7    2   25 1    
     8    3   11 ar   
     9    3   26 1    
    10    4   10 ar   
    11    4   12 ar   
    12    4   27 1    
    13    5   13 1    
    14    5   16 1    
    15    5   28 1    
    16    5   29 1    
    17    6   16 1    
    18    6   17 1    
    19    6   30 1    
    20    6   31 1    
    21    7   16 1    
    22    7   18 1    
    23    7   32 1    
    24    7   33 1    
    25    8   17 1    
    26    8   18 2    
    27    8   34 1    
    28    9   18 1    
    29    9   35 1    
    30    9   36 1    
    31   10   21 1    
    32   11   12 ar   
    33   11   15 ar   
    34   12   20 ar   
    35   13   14 ar   
    36   13   20 ar   
    37   14   15 ar   
    38   14   17 1    
    39   15   19 1    
    40   16   37 1    
    41   17   38 1    
    42   19   39 1    
    43   19   40 1    
@<TRIPOS>SUBSTRUCTURE
     1 <0>         1 GROUP             0       ****    0 ROOT    
@<TRIPOS>MOLECULE
HUX_803_1E66
40   43    1
SMALL
USER_CHARGES


@<TRIPOS>ATOM
      1 C1          3.6467   56.9207   70.4973 C.3       1 <0>        -0.1800 
      2 C2          2.4365   64.7312   70.4429 C.ar      1 <0>        -0.2060 
      3 C3          3.1550   63.8307   71.1381 C.ar      1 <0>        -0.1673 
      4 C4          0.2189   63.8238   71.3275 C.ar      1 <0>        -0.4407 
      5 C5         -0.0651   60.0358   74.2958 C.3       1 <0>        -0.0050 
      6 C6          1.9332   58.9681   75.3161 C.3       1 <0>        -0.1200 
      7 C7          1.0125   57.8167   73.2449 C.3       1 <0>        -0.1200 
      8 C8          3.2763   58.6663   73.1982 C.2       1 <0>        -0.1150 
      9 C9          2.3299   56.9193   71.3070 C.3       1 <0>        -0.1200 
     10 C10         0.9319   64.7999   70.4655 C.ar      1 <0>         0.2755 
     11 C11         2.3975   62.8321   71.9776 C.ar      1 <0>        -0.1736 
     12 C12         1.0270   62.9308   72.0046 C.ar      1 <0>         0.7341 
     13 C13         0.9091   61.0403   73.4719 C.ar      1 <0>         0.3705 
     14 C14         2.2788   60.8443   73.4998 C.ar      1 <0>        -0.4029 
     15 C15         3.0868   61.8274   72.6990 C.ar      1 <0>         0.3811 
     16 C16         0.6193   58.6955   74.6128 C.3       1 <0>        -0.0600 
     17 C17         2.9030   59.6774   74.2734 C.3       1 <0>         0.0550 
     18 C18         2.1842   57.8055   72.6054 C.2       1 <0>         0.0000 
     19 N1          4.4594   61.6599   72.6952 N.pl3     1 <0>        -0.9200 
     20 N2          0.2351   61.9936   72.7952 N.ar      1 <0>        -0.7311 
     21 Cl1         0.1507   65.9183   69.5128 Cl        1 <0>        -0.1800 
     22 H1          3.5485   56.2443   69.6353 H         1 <0>         0.0600 
     23 H2          3.8569   57.9400   70.1411 H         1 <0>         0.0600 
     24 H3          4.4720   56.5790   71.1391 H         1 <0>         0.0600 
     25 H4          2.9695   65.4460   69.8334 H         1 <0>         0.1554 
     26 H5          4.2342   63.8230   71.0965 H         1 <0>         0.1528 
     27 H6         -0.8572   63.8125   71.4189 H         1 <0>         0.2022 
     28 H7         -0.3465   60.5186   75.2433 H         1 <0>         0.0600 
     29 H8         -0.9598   59.8375   73.6874 H         1 <0>         0.0600 
     30 H9          1.7676   59.6239   76.1837 H         1 <0>         0.0600 
     31 H10         2.3782   58.0240   75.6633 H         1 <0>         0.0600 
     32 H11         0.8662   56.7701   73.5501 H         1 <0>         0.0600 
     33 H12         0.2992   58.1720   72.4865 H         1 <0>         0.0600 
     34 H13         4.2991   58.5662   72.8662 H         1 <0>         0.1150 
     35 H14         1.5495   57.2679   70.6146 H         1 <0>         0.0600 
     36 H15         2.1770   55.8797   71.6325 H         1 <0>         0.0600 
     37 H16        -0.0958   58.1230   75.2218 H         1 <0>         0.0600 
     38 H17         3.7411   60.0561   74.8768 H         1 <0>         0.0600 
     39 H18         4.7027   60.8857   73.2795 H         1 <0>         0.3600 
     40 H19         4.7710   61.4835   71.7615 H         1 <0>         0.3600 
@<TRIPOS>BOND
     1    1    9 1    
     2    1   22 1    
     3    1   23 1    
     4    1   24 1    
     5    2    3 ar   
     6    2   10 ar   
     7    2   25 1    
     8    3   11 ar   
     9    3   26 1    
    10    4   10 ar   
    11    4   12 ar   
    12    4   27 1    
    13    5   13 1    
    14    5   16 1    
    15    5   28 1    
    16    5   29 1    
    17    6   16 1    
    18    6   17 1    
    19    6   30 1    
    20    6   31 1    
    21    7   16 1    
    22    7   18 1    
    23    7   32 1    
    24    7   33 1    
    25    8   17 1    
    26    8   18 2    
    27    8   34 1    
    28    9   18 1    
    29    9   35 1    
    30    9   36 1    
    31   10   21 1    
    32   11   12 ar   
    33   11   15 ar   
    34   12   20 ar   
    35   13   14 ar   
    36   13   20 ar   
    37   14   15 ar   
    38   14   17 1    
    39   15   19 1    
    40   16   37 1    
    41   17   38 1    
    42   19   39 1    
    43   19   40 1    
@<TRIPOS>SUBSTRUCTURE
     1 <0>         1 GROUP             0       ****    0 ROOT    
@<TRIPOS>MOLECULE
HUX_803_1E66
40   43    1
SMALL
USER_CHARGES


@<TRIPOS>ATOM
      1 C1          4.0919   58.0028   76.8211 C.3       1 <0>        -0.1800 
      2 C2          2.4680   63.4125   71.6007 C.ar      1 <0>        -0.2060 
      3 C3          1.5454   62.7362   72.3091 C.ar      1 <0>        -0.1673 
      4 C4          3.5637   61.2669   70.7522 C.ar      1 <0>        -0.4407 
      5 C5          2.0696   56.8711   72.0502 C.3       1 <0>        -0.0050 
      6 C6          0.0049   56.4849   73.3775 C.3       1 <0>        -0.1200 
      7 C7          2.1753   56.4851   74.7015 C.3       1 <0>        -0.1200 
      8 C8          0.4828   58.1280   75.2356 C.2       1 <0>        -0.1150 
      9 C9          2.5986   57.6117   76.9033 C.3       1 <0>        -0.1200 
     10 C10         3.5468   62.7512   70.7834 C.ar      1 <0>         0.2755 
     11 C11         1.6118   61.2293   72.2821 C.ar      1 <0>        -0.1736 
     12 C12         2.5872   60.6476   71.5083 C.ar      1 <0>         0.7341 
     13 C13         1.8337   58.4729   72.1745 C.ar      1 <0>         0.3705 
     14 C14         0.8296   58.9571   72.9947 C.ar      1 <0>        -0.4029 
     15 C15         0.7012   60.4545   73.0408 C.ar      1 <0>         0.3811 
     16 C16         1.4640   56.1024   73.2367 C.3       1 <0>        -0.0600 
     17 C17        -0.0555   58.0129   73.8162 C.3       1 <0>         0.0550 
     18 C18         1.7529   57.3885   75.5889 C.2       1 <0>         0.0000 
     19 N1         -0.2858   60.9775   73.8558 N.pl3     1 <0>        -0.9200 
     20 N2          2.7069   59.1944   71.4412 N.ar      1 <0>        -0.7311 
     21 Cl1         4.6719   63.6940   69.9999 Cl        1 <0>        -0.1800 
     22 H1          4.4997   58.1109   77.8370 H         1 <0>         0.0600 
     23 H2          4.6470   57.2190   76.2849 H         1 <0>         0.0600 
     24 H3          4.1918   58.9567   76.2827 H         1 <0>         0.0600 
     25 H4          2.4330   64.4918   71.6190 H         1 <0>         0.1554 
     26 H5          0.7853   63.2532   72.8761 H         1 <0>         0.1528 
     27 H6          4.2892   60.7098   70.1780 H         1 <0>         0.2022 
     28 H7          1.5939   56.5173   71.1236 H         1 <0>         0.0600 
     29 H8          3.1519   56.6771   72.0223 H         1 <0>         0.0600 
     30 H9         -0.5154   56.3471   72.4182 H         1 <0>         0.0600 
     31 H10        -0.4785   55.8546   74.1384 H         1 <0>         0.0600 
     32 H11         2.1609   55.5374   75.2597 H         1 <0>         0.0600 
     33 H12         3.1814   56.8338   74.4255 H         1 <0>         0.0600 
     34 H13        -0.0318   58.7249   75.9741 H         1 <0>         0.1150 
     35 H14         2.5663   56.6569   77.4486 H         1 <0>         0.0600 
     36 H15         2.1020   58.4293   77.4464 H         1 <0>         0.0600 
     37 H16         1.6209   55.0351   73.0221 H         1 <0>         0.0600 
     38 H17        -1.1078   58.3049   73.6851 H         1 <0>         0.0600 
     39 H18        -0.7963   60.2311   74.2828 H         1 <0>         0.3600 
     40 H19         0.1335   61.5432   74.5658 H         1 <0>         0.3600 
@<TRIPOS>BOND
     1    1    9 1    
     2    1   22 1    
     3    1   23 1    
     4    1   24 1    
     5    2    3 ar   
     6    2   10 ar   
     7    2   25 1    
     8    3   11 ar   
     9    3   26 1    
    10    4   10 ar   
    11    4   12 ar   
    12    4   27 1    
    13    5   13 1    
    14    5   16 1    
    15    5   28 1    
    16    5   29 1    
    17    6   16 1    
    18    6   17 1    
    19    6   30 1    
    20    6   31 1    
    21    7   16 1    
    22    7   18 1    
    23    7   32 1    
    24    7   33 1    
    25    8   17 1    
    26    8   18 2    
    27    8   34 1    
    28    9   18 1    
    29    9   35 1    
    30    9   36 1    
    31   10   21 1    
    32   11   12 ar   
    33   11   15 ar   
    34   12   20 ar   
    35   13   14 ar   
    36   13   20 ar   
    37   14   15 ar   
    38   14   17 1    
    39   15   19 1    
    40   16   37 1    
    41   17   38 1    
    42   19   39 1    
    43   19   40 1    
@<TRIPOS>SUBSTRUCTURE
     1 <0>         1 GROUP             0       ****    0 ROOT    
@<TRIPOS>MOLECULE
HUX_803_1E66
40   43    1
SMALL
USER_CHARGES


@<TRIPOS>ATOM
      1 C1          4.2172   63.6581   64.1209 C.3       1 <0>        -0.1800 
      2 C2          4.8795   70.6294   69.5707 C.ar      1 <0>        -0.2060 
      3 C3          3.7690   70.2589   68.7967 C.ar      1 <0>        -0.1673 
      4 C4          6.3046   70.5443   67.5985 C.ar      1 <0>        -0.4407 
      5 C5          4.8510   68.9266   63.3780 C.3       1 <0>        -0.0050 
      6 C6          2.4477   68.4014   62.9748 C.3       1 <0>        -0.1200 
      7 C7          4.1144   66.4667   63.2584 C.3       1 <0>        -0.1200 
      8 C8          2.2721   66.8590   64.9197 C.2       1 <0>        -0.1150 
      9 C9          3.2768   64.5941   64.8968 C.3       1 <0>        -0.1200 
     10 C10         6.1479   70.7469   68.9733 C.ar      1 <0>         0.2755 
     11 C11         3.9461   69.9453   67.4296 C.ar      1 <0>        -0.1736 
     12 C12         5.2213   70.1158   66.8173 C.ar      1 <0>         0.7341 
     13 C13         4.4547   69.3087   64.7954 C.ar      1 <0>         0.3705 
     14 C14         3.1551   69.0713   65.3088 C.ar      1 <0>        -0.4029 
     15 C15         2.8891   69.4184   66.6536 C.ar      1 <0>         0.3811 
     16 C16         3.8863   67.9167   62.7364 C.3       1 <0>        -0.0600 
     17 C17         2.1450   68.2966   64.4780 C.3       1 <0>         0.0550 
     18 C18         3.2036   66.0316   64.4172 C.2       1 <0>         0.0000 
     19 N1          1.6307   69.1715   67.2169 N.pl3     1 <0>        -0.9200 
     20 N2          5.4507   69.8290   65.5257 N.ar      1 <0>        -0.7311 
     21 Cl1         7.5427   71.0294   69.9321 Cl        1 <0>        -0.1800 
     22 H1          4.1763   62.6509   64.5349 H         1 <0>         0.0600 
     23 H2          3.9427   63.5815   63.0700 H         1 <0>         0.0600 
     24 H3          5.2509   63.9951   64.1800 H         1 <0>         0.0600 
     25 H4          4.7605   70.7625   70.6361 H         1 <0>         0.1554 
     26 H5          2.8129   70.1431   69.2874 H         1 <0>         0.1528 
     27 H6          7.2816   70.6291   67.1466 H         1 <0>         0.2022 
     28 H7          4.8562   69.8445   62.7883 H         1 <0>         0.0600 
     29 H8          5.8755   68.5514   63.3561 H         1 <0>         0.0600 
     30 H9          2.3395   69.4351   62.6429 H         1 <0>         0.0600 
     31 H10         1.7298   67.8294   62.3893 H         1 <0>         0.0600 
     32 H11         3.9433   65.7897   62.4231 H         1 <0>         0.0600 
     33 H12         5.1532   66.3272   63.5509 H         1 <0>         0.0600 
     34 H13         1.6107   66.5292   65.7086 H         1 <0>         0.1150 
     35 H14         2.2561   64.2269   64.8191 H         1 <0>         0.0600 
     36 H15         3.5427   64.5898   65.9539 H         1 <0>         0.0600 
     37 H16         4.0941   67.9181   61.6649 H         1 <0>         0.0600 
     38 H17         1.1280   68.6440   64.6605 H         1 <0>         0.0600 
     39 H18         0.8564   68.8525   66.6543 H         1 <0>         0.3600 
     40 H19         1.4101   69.4371   68.1690 H         1 <0>         0.3600 
@<TRIPOS>BOND
     1    1    9 1    
     2    1   22 1    
     3    1   23 1    
     4    1   24 1    
     5    2    3 ar   
     6    2   10 ar   
     7    2   25 1    
     8    3   11 ar   
     9    3   26 1    
    10    4   10 ar   
    11    4   12 ar   
    12    4   27 1    
    13    5   13 1    
    14    5   16 1    
    15    5   28 1    
    16    5   29 1    
    17    6   16 1    
    18    6   17 1    
    19    6   30 1    
    20    6   31 1    
    21    7   16 1    
    22    7   18 1    
    23    7   32 1    
    24    7   33 1    
    25    8   17 1    
    26    8   18 2    
    27    8   34 1    
    28    9   18 1    
    29    9   35 1    
    30    9   36 1    
    31   10   21 1    
    32   11   12 ar   
    33   11   15 ar   
    34   12   20 ar   
    35   13   14 ar   
    36   13   20 ar   
    37   14   15 ar   
    38   14   17 1    
    39   15   19 1    
    40   16   37 1    
    41   17   38 1    
    42   19   39 1    
    43   19   40 1    
@<TRIPOS>SUBSTRUCTURE
     1 <0>         1 GROUP             0       ****    0 ROOT    
@<TRIPOS>MOLECULE
HUX_803_1E66
40   43    1
SMALL
USER_CHARGES


@<TRIPOS>ATOM
      1 C1          6.5656   69.7040   66.6741 C.3       1 <0>        -0.1800 
      2 C2         -1.1587   67.4516   66.7361 C.ar      1 <0>        -0.2060 
      3 C3          0.1577   67.0294   66.4939 C.ar      1 <0>        -0.1673 
      4 C4         -1.1487   68.6294   64.6044 C.ar      1 <0>        -0.4407 
      5 C5          2.8061   69.0308   61.8851 C.3       1 <0>        -0.0050 
      6 C6          4.7862   67.5765   62.2731 C.3       1 <0>        -0.1200 
      7 C7          4.8726   69.9874   63.1106 C.3       1 <0>        -0.1200 
      8 C8          5.0869   68.0654   64.6714 C.2       1 <0>        -0.1150 
      9 C9          5.9429   70.3372   65.4201 C.3       1 <0>        -0.1200 
     10 C10        -1.8216   68.2294   65.7758 C.ar      1 <0>         0.2755 
     11 C11         0.8238   67.3901   65.2971 C.ar      1 <0>        -0.1736 
     12 C12         0.1815   68.2321   64.3518 C.ar      1 <0>         0.7341 
     13 C13         2.1188   68.3587   63.0627 C.ar      1 <0>         0.3705 
     14 C14         2.8272   67.4696   63.9055 C.ar      1 <0>        -0.4029 
     15 C15         2.1307   66.9357   65.0066 C.ar      1 <0>         0.3811 
     16 C16         4.3427   69.0208   62.0162 C.3       1 <0>        -0.0600 
     17 C17         4.3240   67.2004   63.6907 C.3       1 <0>         0.0550 
     18 C18         5.3294   69.3621   64.4203 C.2       1 <0>         0.0000 
     19 N1          2.7427   65.9640   65.7866 N.pl3     1 <0>        -0.9200 
     20 N2          0.8197   68.6762   63.2439 N.ar      1 <0>        -0.7311 
     21 Cl1        -3.4788   68.6294   66.0172 Cl        1 <0>        -0.1800 
     22 H1          6.9950   70.4715   67.3181 H         1 <0>         0.0600 
     23 H2          5.8199   69.1677   67.2605 H         1 <0>         0.0600 
     24 H3          7.3652   69.0091   66.4171 H         1 <0>         0.0600 
     25 H4         -1.6711   67.1525   67.6390 H         1 <0>         0.1554 
     26 H5          0.6364   66.4235   67.2455 H         1 <0>         0.1528 
     27 H6         -1.6630   69.2412   63.8796 H         1 <0>         0.2022 
     28 H7          2.5149   68.4911   60.9833 H         1 <0>         0.0600 
     29 H8          2.4350   70.0458   61.7541 H         1 <0>         0.0600 
     30 H9          4.3515   66.9086   61.5286 H         1 <0>         0.0600 
     31 H10         5.8697   67.4849   62.1742 H         1 <0>         0.0600 
     32 H11         5.6714   70.6119   62.7125 H         1 <0>         0.0600 
     33 H12         4.0584   70.6294   63.4008 H         1 <0>         0.0600 
     34 H13         5.3502   67.6253   65.6172 H         1 <0>         0.1150 
     35 H14         5.1614   71.0292   65.7301 H         1 <0>         0.0600 
     36 H15         6.6944   70.9428   64.9117 H         1 <0>         0.0600 
     37 H16         4.7427   69.3872   61.0739 H         1 <0>         0.0600 
     38 H17         4.5628   66.1522   63.8707 H         1 <0>         0.0600 
     39 H18         3.7496   65.9608   65.7701 H         1 <0>         0.3600 
     40 H19         2.3533   65.8294   66.7077 H         1 <0>         0.3600 
@<TRIPOS>BOND
     1    1    9 1    
     2    1   22 1    
     3    1   23 1    
     4    1   24 1    
     5    2    3 ar   
     6    2   10 ar   
     7    2   25 1    
     8    3   11 ar   
     9    3   26 1    
    10    4   10 ar   
    11    4   12 ar   
    12    4   27 1    
    13    5   13 1    
    14    5   16 1    
    15    5   28 1    
    16    5   29 1    
    17    6   16 1    
    18    6   17 1    
    19    6   30 1    
    20    6   31 1    
    21    7   16 1    
    22    7   18 1    
    23    7   32 1    
    24    7   33 1    
    25    8   17 1    
    26    8   18 2    
    27    8   34 1    
    28    9   18 1    
    29    9   35 1    
    30    9   36 1    
    31   10   21 1    
    32   11   12 ar   
    33   11   15 ar   
    34   12   20 ar   
    35   13   14 ar   
    36   13   20 ar   
    37   14   15 ar   
    38   14   17 1    
    39   15   19 1    
    40   16   37 1    
    41   17   38 1    
    42   19   39 1    
    43   19   40 1    
@<TRIPOS>SUBSTRUCTURE
     1 <0>         1 GROUP             0       ****    0 ROOT    
