@<TRIPOS>MOLECULE
FR6_1_2E1W
45   47    1
SMALL
USER_CHARGES


@<TRIPOS>ATOM
      1 C1         53.6778   58.2393   20.5727 C.3       1 <0>        -0.1800 
      2 C2         47.4063   56.7172   15.4260 C.ar      1 <0>        -0.1150 
      3 C3         48.1170   55.8517   16.2731 C.ar      1 <0>        -0.1150 
      4 C4         47.1835   60.0646   18.9609 C.ar      1 <0>        -0.1150 
      5 C5         47.0266   57.9858   15.8929 C.ar      1 <0>        -0.1150 
      6 C6         48.4787   56.2581   17.5736 C.ar      1 <0>        -0.1150 
      7 C7         46.9168   59.6505   17.6479 C.ar      1 <0>        -0.1150 
      8 C8         47.8904   59.2155   19.8267 C.ar      1 <0>        -0.1150 
      9 C9         51.7168   54.5045   21.5610 C.ar      1 <0>        -0.2860 
     10 C10        52.1168   55.4826   19.6675 C.ar      1 <0>         0.2750 
     11 C11        49.1687   57.1511   20.4262 C.3       1 <0>        -0.0050 
     12 C12        50.4859   57.8722   20.7908 C.3       1 <0>        -0.1200 
     13 C13        47.3461   58.3840   17.2075 C.ar      1 <0>         0.0000 
     14 C14        48.3602   57.9549   19.4051 C.ar      1 <0>        -0.1150 
     15 C15        48.0789   57.5224   18.0750 C.ar      1 <0>         0.0000 
     16 C16        51.9935   53.5558   20.5990 C.ar      1 <0>         0.1215 
     17 C17        52.8340   57.8944   21.8065 C.3       1 <0>         0.2050 
     18 C18        51.5455   57.0528   21.5627 C.3       1 <0>         0.0625 
     19 C19        52.0040   52.0783   20.8045 C.2       1 <0>         0.6385 
     20 N1         52.3394   51.3704   19.7263 N.am      1 <0>        -0.7600 
     21 N2         52.2560   54.1928   19.3836 N.2       1 <0>        -0.5630 
     22 N3         51.7934   55.7492   20.9429 N.pl3     1 <0>        -0.0735 
     23 O1         53.7163   57.2283   22.6731 O.3       1 <0>        -0.6830 
     24 O2         51.7169   51.5457   21.8731 O.2       1 <0>        -0.5000 
     25 H1         53.1043   58.8373   19.8731 H         1 <0>         0.0600 
     26 H2         54.5505   58.8285   20.8536 H         1 <0>         0.0600 
     27 H3         54.0462   57.3542   20.0555 H         1 <0>         0.0600 
     28 H4         47.1452   56.4061   14.4247 H         1 <0>         0.1150 
     29 H5         48.4030   54.8719   15.9192 H         1 <0>         0.1150 
     30 H6         46.8478   61.0317   19.3059 H         1 <0>         0.1150 
     31 H7         46.4754   58.6467   15.2396 H         1 <0>         0.1150 
     32 H8         49.0336   55.5524   18.1687 H         1 <0>         0.1150 
     33 H9         46.3645   60.3021   16.9865 H         1 <0>         0.1150 
     34 H10        48.1168   59.5564   20.8267 H         1 <0>         0.1150 
     35 H11        51.4739   54.3910   22.6079 H         1 <0>         0.1870 
     36 H12        52.2418   56.2531   18.9208 H         1 <0>         0.0780 
     37 H13        49.3577   56.1377   20.0904 H         1 <0>         0.0600 
     38 H14        48.5652   57.0338   21.3276 H         1 <0>         0.0600 
     39 H15        50.2514   58.7673   21.3668 H         1 <0>         0.0600 
     40 H16        50.9403   58.2313   19.8729 H         1 <0>         0.0600 
     41 H17        52.5504   58.8295   22.2906 H         1 <0>         0.0600 
     42 H18        51.1127   56.8481   22.5439 H         1 <0>         0.0600 
     43 H19        52.3600   50.3600   19.7724 H         1 <0>         0.3800 
     44 H20        52.5168   51.8639   18.8645 H         1 <0>         0.3800 
     45 H21        53.4090   57.3516   23.5875 H         1 <0>         0.4180 
@<TRIPOS>BOND
     1    1   17 1    
     2    1   25 1    
     3    1   26 1    
     4    1   27 1    
     5    2    3 ar   
     6    2    5 ar   
     7    2   28 1    
     8    3    6 ar   
     9    3   29 1    
    10    4    7 ar   
    11    4    8 ar   
    12    4   30 1    
    13    5   13 ar   
    14    5   31 1    
    15    6   15 ar   
    16    6   32 1    
    17    7   13 ar   
    18    7   33 1    
    19    8   14 ar   
    20    8   34 1    
    21    9   16 ar   
    22    9   22 ar   
    23    9   35 1    
    24   10   21 ar   
    25   10   22 ar   
    26   10   36 1    
    27   11   12 1    
    28   11   14 1    
    29   11   37 1    
    30   11   38 1    
    31   12   18 1    
    32   12   39 1    
    33   12   40 1    
    34   13   15 ar   
    35   14   15 ar   
    36   16   19 1    
    37   16   21 ar   
    38   17   18 1    
    39   17   23 1    
    40   17   41 1    
    41   18   22 1    
    42   18   42 1    
    43   19   20 am   BACKBONE|DICT|INTERRES
    44   19   24 2    
    45   20   43 1    
    46   20   44 1    
    47   23   45 1    
@<TRIPOS>SUBSTRUCTURE
     1 <0>         1 GROUP             0       ****    0 ROOT    
@<TRIPOS>MOLECULE
FR6_1_2E1W
45   47    1
SMALL
USER_CHARGES


@<TRIPOS>ATOM
      1 C1         54.5314   57.6350   21.6428 C.3       1 <0>        -0.1800 
      2 C2         47.3224   58.9748   17.0724 C.ar      1 <0>        -0.1150 
      3 C3         47.5504   59.5438   18.3370 C.ar      1 <0>        -0.1150 
      4 C4         48.9165   54.6579   18.6750 C.ar      1 <0>        -0.1150 
      5 C5         47.6748   57.6347   16.8281 C.ar      1 <0>        -0.1150 
      6 C6         48.1077   58.7650   19.3677 C.ar      1 <0>        -0.1150 
      7 C7         48.5069   55.4885   17.6198 C.ar      1 <0>        -0.1150 
      8 C8         49.1071   55.2009   19.9555 C.ar      1 <0>        -0.1150 
      9 C9         51.9204   54.7763   21.6790 C.ar      1 <0>        -0.2860 
     10 C10        52.3493   55.8010   19.8144 C.ar      1 <0>         0.2750 
     11 C11        49.3289   57.1445   21.5545 C.3       1 <0>        -0.0050 
     12 C12        50.5973   58.0276   21.5002 C.3       1 <0>        -0.1200 
     13 C13        48.2106   56.8442   17.8646 C.ar      1 <0>         0.0000 
     14 C14        48.9381   56.5811   20.1915 C.ar      1 <0>        -0.1150 
     15 C15        48.4272   57.4031   19.1530 C.ar      1 <0>         0.0000 
     16 C16        52.1170   53.8487   20.6773 C.ar      1 <0>         0.1215 
     17 C17        53.1490   58.2738   21.4588 C.3       1 <0>         0.2050 
     18 C18        51.9554   57.3308   21.7821 C.3       1 <0>         0.0625 
     19 C19        52.0240   52.3666   20.8235 C.2       1 <0>         0.6385 
     20 N1         52.2888   51.6839   19.7085 N.am      1 <0>        -0.7600 
     21 N2         52.4058   54.5148   19.4822 N.2       1 <0>        -0.5630 
     22 N3         52.0846   56.0367   21.1097 N.pl3     1 <0>        -0.0735 
     23 O1         53.1162   59.4299   22.2730 O.3       1 <0>        -0.6830 
     24 O2         51.7167   51.8089   21.8747 O.2       1 <0>        -0.5000 
     25 H1         54.7041   56.8286   20.9324 H         1 <0>         0.0600 
     26 H2         55.3172   58.3715   21.4732 H         1 <0>         0.0600 
     27 H3         54.6531   57.2371   22.6490 H         1 <0>         0.0600 
     28 H4         46.8874   59.5690   16.2818 H         1 <0>         0.1150 
     29 H5         47.2934   60.5774   18.5222 H         1 <0>         0.1150 
     30 H6         49.0956   53.6070   18.5032 H         1 <0>         0.1150 
     31 H7         47.5014   57.2104   15.8489 H         1 <0>         0.1150 
     32 H8         48.2550   59.2296   20.3297 H         1 <0>         0.1150 
     33 H9         48.3545   55.0623   16.6391 H         1 <0>         0.1150 
     34 H10        49.4289   54.5502   20.7544 H         1 <0>         0.1150 
     35 H11        51.6842   54.6385   22.7247 H         1 <0>         0.1870 
     36 H12        52.5131   56.5922   19.0965 H         1 <0>         0.0780 
     37 H13        49.4763   56.3411   22.2725 H         1 <0>         0.0600 
     38 H14        48.4865   57.7159   21.9450 H         1 <0>         0.0600 
     39 H15        50.4800   58.8175   22.2464 H         1 <0>         0.0600 
     40 H16        50.6435   58.5414   20.5402 H         1 <0>         0.0600 
     41 H17        53.0723   58.6125   20.4236 H         1 <0>         0.0600 
     42 H18        51.9862   57.1125   22.8511 H         1 <0>         0.0600 
     43 H19        52.2305   50.6738   19.7064 H         1 <0>         0.3800 
     44 H20        52.5020   52.2044   18.8704 H         1 <0>         0.3800 
     45 H21        52.6749   59.2277   23.1039 H         1 <0>         0.4180 
@<TRIPOS>BOND
     1    1   17 1    
     2    1   25 1    
     3    1   26 1    
     4    1   27 1    
     5    2    3 ar   
     6    2    5 ar   
     7    2   28 1    
     8    3    6 ar   
     9    3   29 1    
    10    4    7 ar   
    11    4    8 ar   
    12    4   30 1    
    13    5   13 ar   
    14    5   31 1    
    15    6   15 ar   
    16    6   32 1    
    17    7   13 ar   
    18    7   33 1    
    19    8   14 ar   
    20    8   34 1    
    21    9   16 ar   
    22    9   22 ar   
    23    9   35 1    
    24   10   21 ar   
    25   10   22 ar   
    26   10   36 1    
    27   11   12 1    
    28   11   14 1    
    29   11   37 1    
    30   11   38 1    
    31   12   18 1    
    32   12   39 1    
    33   12   40 1    
    34   13   15 ar   
    35   14   15 ar   
    36   16   19 1    
    37   16   21 ar   
    38   17   18 1    
    39   17   23 1    
    40   17   41 1    
    41   18   22 1    
    42   18   42 1    
    43   19   20 am   BACKBONE|DICT|INTERRES
    44   19   24 2    
    45   20   43 1    
    46   20   44 1    
    47   23   45 1    
@<TRIPOS>SUBSTRUCTURE
     1 <0>         1 GROUP             0       ****    0 ROOT    
@<TRIPOS>MOLECULE
FR6_1_2E1W
45   47    1
SMALL
USER_CHARGES


@<TRIPOS>ATOM
      1 C1         54.5347   57.6738   20.8928 C.3       1 <0>        -0.1800 
      2 C2         47.3182   59.0543   17.1800 C.ar      1 <0>        -0.1150 
      3 C3         47.5485   59.5941   18.4600 C.ar      1 <0>        -0.1150 
      4 C4         48.9175   54.7073   18.6966 C.ar      1 <0>        -0.1150 
      5 C5         47.6722   57.7198   16.9083 C.ar      1 <0>        -0.1150 
      6 C6         48.1167   58.7983   19.4715 C.ar      1 <0>        -0.1150 
      7 C7         48.5063   55.5589   17.6578 C.ar      1 <0>        -0.1150 
      8 C8         49.1224   55.2273   19.9854 C.ar      1 <0>        -0.1150 
      9 C9         52.0802   54.7431   21.5456 C.ar      1 <0>        -0.2860 
     10 C10        52.2573   55.8646   19.6963 C.ar      1 <0>         0.2750 
     11 C11        49.4354   57.1419   21.5996 C.3       1 <0>        -0.0050 
     12 C12        50.7117   58.0167   21.5217 C.3       1 <0>        -0.1200 
     13 C13        48.2160   56.9102   17.9281 C.ar      1 <0>         0.0000 
     14 C14        48.9785   56.6063   20.2426 C.ar      1 <0>        -0.1150 
     15 C15        48.4464   57.4439   19.2256 C.ar      1 <0>         0.0000 
     16 C16        52.1170   53.8706   20.4758 C.ar      1 <0>         0.1215 
     17 C17        53.2647   58.2817   21.4905 C.3       1 <0>         0.2050 
     18 C18        52.0730   57.3006   21.7584 C.3       1 <0>         0.0625 
     19 C19        51.9222   52.3937   20.4987 C.2       1 <0>         0.6385 
     20 N1         52.5169   51.7421   21.4992 N.am      1 <0>        -0.7600 
     21 N2         52.2579   54.5995   19.2980 N.2       1 <0>        -0.5630 
     22 N3         52.1577   56.0357   21.0230 N.pl3     1 <0>        -0.0735 
     23 O1         53.7164   58.9184   22.6722 O.3       1 <0>        -0.6830 
     24 O2         51.3057   51.7999   19.6204 O.2       1 <0>        -0.5000 
     25 H1         54.4031   57.3483   19.8648 H         1 <0>         0.0600 
     26 H2         55.3168   58.4277   20.8756 H         1 <0>         0.0600 
     27 H3         54.9045   56.8302   21.4723 H         1 <0>         0.0600 
     28 H4         46.8804   59.6637   16.4032 H         1 <0>         0.1150 
     29 H5         47.2838   60.6204   18.6682 H         1 <0>         0.1150 
     30 H6         49.0874   53.6581   18.5029 H         1 <0>         0.1150 
     31 H7         47.4964   57.3110   15.9236 H         1 <0>         0.1150 
     32 H8         48.2715   59.2336   20.4476 H         1 <0>         0.1150 
     33 H9         48.3486   55.1500   16.6702 H         1 <0>         0.1150 
     34 H10        49.4533   54.5603   20.7666 H         1 <0>         0.1150 
     35 H11        51.9590   54.5564   22.6027 H         1 <0>         0.1870 
     36 H12        52.3155   56.6917   19.0030 H         1 <0>         0.0780 
     37 H13        49.6246   56.3088   22.2733 H         1 <0>         0.0600 
     38 H14        48.6158   57.7028   22.0494 H         1 <0>         0.0600 
     39 H15        50.6250   58.8035   22.2736 H         1 <0>         0.0600 
     40 H16        50.7292   58.5349   20.5628 H         1 <0>         0.0600 
     41 H17        52.9383   59.0711   20.8118 H         1 <0>         0.0600 
     42 H18        52.1097   57.0205   22.8123 H         1 <0>         0.0600 
     43 H19        52.5224   50.7287   21.4743 H         1 <0>         0.3800 
     44 H20        53.1211   52.2454   22.1342 H         1 <0>         0.3800 
     45 H21        53.0462   58.8296   23.3517 H         1 <0>         0.4180 
@<TRIPOS>BOND
     1    1   17 1    
     2    1   25 1    
     3    1   26 1    
     4    1   27 1    
     5    2    3 ar   
     6    2    5 ar   
     7    2   28 1    
     8    3    6 ar   
     9    3   29 1    
    10    4    7 ar   
    11    4    8 ar   
    12    4   30 1    
    13    5   13 ar   
    14    5   31 1    
    15    6   15 ar   
    16    6   32 1    
    17    7   13 ar   
    18    7   33 1    
    19    8   14 ar   
    20    8   34 1    
    21    9   16 ar   
    22    9   22 ar   
    23    9   35 1    
    24   10   21 ar   
    25   10   22 ar   
    26   10   36 1    
    27   11   12 1    
    28   11   14 1    
    29   11   37 1    
    30   11   38 1    
    31   12   18 1    
    32   12   39 1    
    33   12   40 1    
    34   13   15 ar   
    35   14   15 ar   
    36   16   19 1    
    37   16   21 ar   
    38   17   18 1    
    39   17   23 1    
    40   17   41 1    
    41   18   22 1    
    42   18   42 1    
    43   19   20 am   BACKBONE|DICT|INTERRES
    44   19   24 2    
    45   20   43 1    
    46   20   44 1    
    47   23   45 1    
@<TRIPOS>SUBSTRUCTURE
     1 <0>         1 GROUP             0       ****    0 ROOT    
@<TRIPOS>MOLECULE
FR6_1_2E1W
45   47    1
SMALL
USER_CHARGES


@<TRIPOS>ATOM
      1 C1         53.1448   59.1200   21.5427 C.3       1 <0>        -0.1800 
      2 C2         47.4745   58.6886   17.0077 C.ar      1 <0>        -0.1150 
      3 C3         47.7169   59.2364   18.2793 C.ar      1 <0>        -0.1150 
      4 C4         48.9161   54.3025   18.5771 C.ar      1 <0>        -0.1150 
      5 C5         47.7722   57.3368   16.7541 C.ar      1 <0>        -0.1150 
      6 C6         48.2427   58.4289   19.3049 C.ar      1 <0>        -0.1150 
      7 C7         48.5112   55.1503   17.5345 C.ar      1 <0>        -0.1150 
      8 C8         49.1345   54.8294   19.8603 C.ar      1 <0>        -0.1150 
      9 C9         52.0318   54.2087   21.6701 C.ar      1 <0>        -0.2860 
     10 C10        52.2859   55.3104   19.8186 C.ar      1 <0>         0.2750 
     11 C11        49.3987   56.7465   21.4781 C.3       1 <0>        -0.0050 
     12 C12        50.7148   57.5508   21.4604 C.3       1 <0>        -0.1200 
     13 C13        48.2769   56.5180   17.7849 C.ar      1 <0>         0.0000 
     14 C14        48.9994   56.2113   20.1086 C.ar      1 <0>        -0.1150 
     15 C15        48.5168   57.0593   19.0768 C.ar      1 <0>         0.0000 
     16 C16        52.1195   53.3267   20.6119 C.ar      1 <0>         0.1215 
     17 C17        53.3160   57.6343   21.8607 C.3       1 <0>         0.2050 
     18 C18        52.0028   56.7702   21.8563 C.3       1 <0>         0.0625 
     19 C19        52.0027   51.8420   20.6719 C.2       1 <0>         0.6385 
     20 N1         52.9168   51.2284   21.4268 N.am      1 <0>        -0.7600 
     21 N2         52.3072   54.0417   19.4296 N.2       1 <0>        -0.5630 
     22 N3         52.1164   55.4955   21.1374 N.pl3     1 <0>        -0.0735 
     23 O1         54.3022   57.2278   20.9380 O.3       1 <0>        -0.6830 
     24 O2         51.1459   51.2257   20.0424 O.2       1 <0>        -0.5000 
     25 H1         52.5164   59.6279   22.2730 H         1 <0>         0.0600 
     26 H2         54.1062   59.6242   21.5373 H         1 <0>         0.0600 
     27 H3         52.7156   59.2300   20.5486 H         1 <0>         0.0600 
     28 H4         47.0635   59.3048   16.2216 H         1 <0>         0.1150 
     29 H5         47.4947   60.2755   18.4732 H         1 <0>         0.1150 
     30 H6         49.0664   53.2482   18.3951 H         1 <0>         0.1150 
     31 H7         47.5826   56.9254   15.7730 H         1 <0>         0.1150 
     32 H8         48.4108   58.8799   20.2702 H         1 <0>         0.1150 
     33 H9         48.3345   54.7359   16.5523 H         1 <0>         0.1150 
     34 H10        49.4557   54.1655   20.6497 H         1 <0>         0.1150 
     35 H11        51.8863   54.0281   22.7261 H         1 <0>         0.1870 
     36 H12        52.3735   56.1306   19.1212 H         1 <0>         0.0780 
     37 H13        49.5058   55.9277   22.1824 H         1 <0>         0.0600 
     38 H14        48.5827   57.3529   21.8714 H         1 <0>         0.0600 
     39 H15        50.5922   58.3591   22.1831 H         1 <0>         0.0600 
     40 H16        50.8345   58.0316   20.4898 H         1 <0>         0.0600 
     41 H17        53.7698   57.5507   22.8493 H         1 <0>         0.0600 
     42 H18        51.8433   56.4965   22.9015 H         1 <0>         0.0600 
     43 H19        52.9494   50.2150   21.4759 H         1 <0>         0.3800 
     44 H20        53.6398   51.7774   21.8749 H         1 <0>         0.3800 
     45 H21        53.9927   57.4201   20.0660 H         1 <0>         0.4180 
@<TRIPOS>BOND
     1    1   17 1    
     2    1   25 1    
     3    1   26 1    
     4    1   27 1    
     5    2    3 ar   
     6    2    5 ar   
     7    2   28 1    
     8    3    6 ar   
     9    3   29 1    
    10    4    7 ar   
    11    4    8 ar   
    12    4   30 1    
    13    5   13 ar   
    14    5   31 1    
    15    6   15 ar   
    16    6   32 1    
    17    7   13 ar   
    18    7   33 1    
    19    8   14 ar   
    20    8   34 1    
    21    9   16 ar   
    22    9   22 ar   
    23    9   35 1    
    24   10   21 ar   
    25   10   22 ar   
    26   10   36 1    
    27   11   12 1    
    28   11   14 1    
    29   11   37 1    
    30   11   38 1    
    31   12   18 1    
    32   12   39 1    
    33   12   40 1    
    34   13   15 ar   
    35   14   15 ar   
    36   16   19 1    
    37   16   21 ar   
    38   17   18 1    
    39   17   23 1    
    40   17   41 1    
    41   18   22 1    
    42   18   42 1    
    43   19   20 am   BACKBONE|DICT|INTERRES
    44   19   24 2    
    45   20   43 1    
    46   20   44 1    
    47   23   45 1    
@<TRIPOS>SUBSTRUCTURE
     1 <0>         1 GROUP             0       ****    0 ROOT    
