@<TRIPOS>MOLECULE
283_1_2OI0
37   38    1
SMALL
USER_CHARGES


@<TRIPOS>ATOM
      1 C1         52.8048   28.1121    3.8931 C.3       1 <0>        -0.1800 
      2 C2         45.9752   28.0060    2.1808 C.ar      1 <0>        -0.1150 
      3 C3         45.9306   28.0059    4.6173 C.ar      1 <0>        -0.1150 
      4 C4         44.5953   28.2783    2.1483 C.ar      1 <0>        -0.1150 
      5 C5         44.5516   28.2829    4.5910 C.ar      1 <0>        -0.1150 
      6 C6         43.1165   32.6769    2.7885 C.3       1 <0>        -0.0833 
      7 C7         42.6679   31.3259    2.2240 C.3       1 <0>         0.0588 
      8 C8         42.4667   31.2659    4.6295 C.3       1 <0>         0.0588 
      9 C9         48.7393   27.5835    4.5670 C.3       1 <0>         0.1400 
     10 C10        51.3685   27.8818    4.0899 C.1       1 <0>         0.0000 
     11 C11        50.1749   27.7208    4.2878 C.1       1 <0>         0.0000 
     12 C12        46.6603   27.8747    3.4072 C.ar      1 <0>         0.0850 
     13 C13        43.8926   28.4312    3.3573 C.ar      1 <0>         0.1567 
     14 C14        43.4301   32.3976    4.2587 C.3       1 <0>         0.1567 
     15 N1         42.1657   30.5654    3.3744 N.pl3     1 <0>        -0.5376 
     16 O1         41.5839   28.4120    2.0439 O.2       1 <0>        -0.4680 
     17 O2         41.5627   28.3754    4.6014 O.2       1 <0>        -0.4680 
     18 O3         48.0148   27.6275    3.3446 O.3       1 <0>        -0.2850 
     19 S1         45.1518   31.8407    4.4443 S.3       1 <0>        -0.3350 
     20 S2         42.1526   28.8348    3.3354 S.o2      1 <0>         0.8327 
     21 H1         53.2898   27.2031    3.5401 H         1 <0>         0.0600 
     22 H2         53.2473   28.4086    4.8424 H         1 <0>         0.0600 
     23 H3         52.9576   28.9099    3.1668 H         1 <0>         0.0600 
     24 H4         46.5178   27.9056    1.2533 H         1 <0>         0.1150 
     25 H5         46.4005   27.8967    5.5836 H         1 <0>         0.1150 
     26 H6         44.0877   28.3889    1.2017 H         1 <0>         0.1150 
     27 H7         44.0079   28.3894    5.5188 H         1 <0>         0.1150 
     28 H8         43.9553   33.1068    2.2393 H         1 <0>         0.0600 
     29 H9         42.2886   33.3843    2.7261 H         1 <0>         0.0600 
     30 H10        43.5190   30.8089    1.7817 H         1 <0>         0.0733 
     31 H11        41.8970   31.4237    1.4588 H         1 <0>         0.0733 
     32 H12        41.5350   31.6687    5.0280 H         1 <0>         0.0733 
     33 H13        42.8783   30.5909    5.3804 H         1 <0>         0.0733 
     34 H14        48.5629   26.6424    5.0899 H         1 <0>         0.0300 
     35 H15        48.4754   28.4064    5.2287 H         1 <0>         0.0300 
     36 H16        43.2829   33.2799    4.8822 H         1 <0>         0.0600 
     37 H17        45.0939   31.6076    5.7586 H         1 <0>         0.1550 
@<TRIPOS>BOND
     1    1   10 1    
     2    1   21 1    
     3    1   22 1    
     4    1   23 1    
     5    2    4 ar   
     6    2   12 ar   
     7    2   24 1    
     8    3    5 ar   
     9    3   12 ar   
    10    3   25 1    
    11    4   13 ar   
    12    4   26 1    
    13    5   13 ar   
    14    5   27 1    
    15    6    7 1    
    16    6   14 1    
    17    6   28 1    
    18    6   29 1    
    19    7   15 1    
    20    7   30 1    
    21    7   31 1    
    22    8   14 1    
    23    8   15 1    
    24    8   32 1    
    25    8   33 1    
    26    9   11 1    
    27    9   18 1    
    28    9   34 1    
    29    9   35 1    
    30   10   11 3    
    31   12   18 1    
    32   13   20 1    
    33   14   19 1    
    34   14   36 1    
    35   15   20 1    
    36   16   20 2    
    37   17   20 2    
    38   19   37 1    
@<TRIPOS>SUBSTRUCTURE
     1 <0>         1 GROUP             0       ****    0 ROOT    
@<TRIPOS>MOLECULE
283_1_2OI0
37   38    1
SMALL
USER_CHARGES


@<TRIPOS>ATOM
      1 C1         42.8914   28.6109   -3.5492 C.3       1 <0>        -0.1800 
      2 C2         44.1148   29.1618    1.1278 C.ar      1 <0>        -0.1150 
      3 C3         42.8283   28.1011    2.8975 C.ar      1 <0>        -0.1150 
      4 C4         45.3092   28.7934    1.7696 C.ar      1 <0>        -0.1150 
      5 C5         44.0212   27.7349    3.5514 C.ar      1 <0>        -0.1150 
      6 C6         45.7766   30.9267    5.8521 C.3       1 <0>        -0.0833 
      7 C7         46.7181   30.3057    4.8097 C.3       1 <0>         0.0588 
      8 C8         45.9918   28.6162    6.3396 C.3       1 <0>         0.0588 
      9 C9         41.5818   30.1317    0.0934 C.3       1 <0>         0.1400 
     10 C10        42.3611   29.1586   -2.2943 C.1       1 <0>         0.0000 
     11 C11        41.9628   29.6067   -1.2311 C.1       1 <0>         0.0000 
     12 C12        42.8565   28.8127    1.6798 C.ar      1 <0>         0.0850 
     13 C13        45.2599   28.0828    2.9823 C.ar      1 <0>         0.1567 
     14 C14        44.9657   29.7430    6.3688 C.3       1 <0>         0.1567 
     15 N1         46.7627   28.8684    5.1247 N.pl3     1 <0>        -0.5376 
     16 O1         46.6963   26.3691    4.4311 O.2       1 <0>        -0.4680 
     17 O2         47.9072   28.0507    2.9497 O.2       1 <0>        -0.4680 
     18 O3         41.6405   29.1132    1.0943 O.3       1 <0>        -0.2850 
     19 S1         44.3315   30.0072    8.0442 S.3       1 <0>        -0.3350 
     20 S2         46.7862   27.7113    3.8377 S.o2      1 <0>         0.8327 
     21 H1         42.4923   27.6081   -3.7129 H         1 <0>         0.0600 
     22 H2         43.9794   28.5567   -3.4999 H         1 <0>         0.0600 
     23 H3         42.5991   29.2560   -4.3762 H         1 <0>         0.0600 
     24 H4         44.2038   29.7130    0.2054 H         1 <0>         0.1150 
     25 H5         41.8775   27.8334    3.3385 H         1 <0>         0.1150 
     26 H6         46.2565   29.0811    1.3358 H         1 <0>         0.1150 
     27 H7         43.9840   27.2044    4.4908 H         1 <0>         0.1150 
     28 H8         46.3599   31.3475    6.6694 H         1 <0>         0.0600 
     29 H9         45.1547   31.7211    5.4386 H         1 <0>         0.0600 
     30 H10        47.7177   30.7360    4.8440 H         1 <0>         0.0733 
     31 H11        46.3324   30.4600    3.8030 H         1 <0>         0.0733 
     32 H12        45.5616   27.6228    6.3486 H         1 <0>         0.0733 
     33 H13        46.6696   28.6859    7.1922 H         1 <0>         0.0733 
     34 H14        42.2032   30.9915    0.3507 H         1 <0>         0.0300 
     35 H15        40.5575   30.4926    0.0184 H         1 <0>         0.0300 
     36 H16        44.1368   29.5271    5.6941 H         1 <0>         0.0600 
     37 H17        43.8839   28.7539    8.2169 H         1 <0>         0.1550 
@<TRIPOS>BOND
     1    1   10 1    
     2    1   21 1    
     3    1   22 1    
     4    1   23 1    
     5    2    4 ar   
     6    2   12 ar   
     7    2   24 1    
     8    3    5 ar   
     9    3   12 ar   
    10    3   25 1    
    11    4   13 ar   
    12    4   26 1    
    13    5   13 ar   
    14    5   27 1    
    15    6    7 1    
    16    6   14 1    
    17    6   28 1    
    18    6   29 1    
    19    7   15 1    
    20    7   30 1    
    21    7   31 1    
    22    8   14 1    
    23    8   15 1    
    24    8   32 1    
    25    8   33 1    
    26    9   11 1    
    27    9   18 1    
    28    9   34 1    
    29    9   35 1    
    30   10   11 3    
    31   12   18 1    
    32   13   20 1    
    33   14   19 1    
    34   14   36 1    
    35   15   20 1    
    36   16   20 2    
    37   17   20 2    
    38   19   37 1    
@<TRIPOS>SUBSTRUCTURE
     1 <0>         1 GROUP             0       ****    0 ROOT    
@<TRIPOS>MOLECULE
283_1_2OI0
37   38    1
SMALL
USER_CHARGES


@<TRIPOS>ATOM
      1 C1         43.2924   28.0294   -3.7628 C.3       1 <0>        -0.1800 
      2 C2         44.3398   29.0460    0.9810 C.ar      1 <0>        -0.1150 
      3 C3         42.9691   28.0444    2.7257 C.ar      1 <0>        -0.1150 
      4 C4         45.5009   28.7153    1.6993 C.ar      1 <0>        -0.1150 
      5 C5         44.1290   27.7076    3.4492 C.ar      1 <0>        -0.1150 
      6 C6         45.7756   30.9156    5.8653 C.3       1 <0>        -0.0833 
      7 C7         46.7134   30.2971    4.8196 C.3       1 <0>         0.0588 
      8 C8         45.9853   28.6030    6.3481 C.3       1 <0>         0.0588 
      9 C9         41.8782   29.8620   -0.2988 C.3       1 <0>         0.1400 
     10 C10        42.7591   28.6659   -2.5500 C.1       1 <0>         0.0000 
     11 C11        42.3402   29.2060   -1.5382 C.1       1 <0>         0.0000 
     12 C12        43.0572   28.7014    1.4787 C.ar      1 <0>         0.0850 
     13 C13        45.3919   28.0433    2.9289 C.ar      1 <0>         0.1567 
     14 C14        44.9583   29.7312    6.3721 C.3       1 <0>         0.1567 
     15 N1         46.7641   28.8615    5.1407 N.pl3     1 <0>        -0.5376 
     16 O1         46.7630   26.3519    4.4457 O.2       1 <0>        -0.4680 
     17 O2         48.0364   28.0504    3.0366 O.2       1 <0>        -0.4680 
     18 O3         41.8742   28.9605    0.8125 O.3       1 <0>        -0.2850 
     19 S1         44.3143   30.0068    8.0440 S.3       1 <0>        -0.3350 
     20 S2         46.8738   27.6979    3.8636 S.o2      1 <0>         0.8327 
     21 H1         42.7627   27.0961   -3.9565 H         1 <0>         0.0600 
     22 H2         44.3550   27.8188   -3.6339 H         1 <0>         0.0600 
     23 H3         43.1605   28.6942   -4.6164 H         1 <0>         0.0600 
     24 H4         44.4677   29.5677    0.0456 H         1 <0>         0.1150 
     25 H5         41.9996   27.7870    3.1286 H         1 <0>         0.1150 
     26 H6         46.4681   28.9973    1.3118 H         1 <0>         0.1150 
     27 H7         44.0498   27.2062    4.4021 H         1 <0>         0.1150 
     28 H8         46.3624   31.3241    6.6862 H         1 <0>         0.0600 
     29 H9         45.1592   31.7176    5.4584 H         1 <0>         0.0600 
     30 H10        47.7119   30.7314    4.8437 H         1 <0>         0.0733 
     31 H11        46.3172   30.4489    3.8159 H         1 <0>         0.0733 
     32 H12        45.5613   27.6074    6.3478 H         1 <0>         0.0733 
     33 H13        46.6580   28.6666    7.2047 H         1 <0>         0.0733 
     34 H14        42.4755   30.7536   -0.1036 H         1 <0>         0.0300 
     35 H15        40.8563   30.1969   -0.4733 H         1 <0>         0.0300 
     36 H16        44.1354   29.5139    5.6907 H         1 <0>         0.0600 
     37 H17        43.8854   28.7494    8.2209 H         1 <0>         0.1550 
@<TRIPOS>BOND
     1    1   10 1    
     2    1   21 1    
     3    1   22 1    
     4    1   23 1    
     5    2    4 ar   
     6    2   12 ar   
     7    2   24 1    
     8    3    5 ar   
     9    3   12 ar   
    10    3   25 1    
    11    4   13 ar   
    12    4   26 1    
    13    5   13 ar   
    14    5   27 1    
    15    6    7 1    
    16    6   14 1    
    17    6   28 1    
    18    6   29 1    
    19    7   15 1    
    20    7   30 1    
    21    7   31 1    
    22    8   14 1    
    23    8   15 1    
    24    8   32 1    
    25    8   33 1    
    26    9   11 1    
    27    9   18 1    
    28    9   34 1    
    29    9   35 1    
    30   10   11 3    
    31   12   18 1    
    32   13   20 1    
    33   14   19 1    
    34   14   36 1    
    35   15   20 1    
    36   16   20 2    
    37   17   20 2    
    38   19   37 1    
@<TRIPOS>SUBSTRUCTURE
     1 <0>         1 GROUP             0       ****    0 ROOT    
@<TRIPOS>MOLECULE
283_1_2OI0
37   38    1
SMALL
USER_CHARGES


@<TRIPOS>ATOM
      1 C1         53.2550   28.6558    3.2078 C.3       1 <0>        -0.1800 
      2 C2         47.2275   26.4513    3.2440 C.ar      1 <0>        -0.1150 
      3 C3         47.4862   27.7046    5.3191 C.ar      1 <0>        -0.1150 
      4 C4         45.9284   26.9709    3.0861 C.ar      1 <0>        -0.1150 
      5 C5         46.1871   28.2278    5.1657 C.ar      1 <0>        -0.1150 
      6 C6         45.6180   31.0793    5.7440 C.3       1 <0>        -0.0833 
      7 C7         44.1976   30.5268    5.7627 C.3       1 <0>         0.0588 
      8 C8         44.7219   31.1599    3.4782 C.3       1 <0>         0.0588 
      9 C9         50.2036   26.8098    5.3516 C.3       1 <0>         0.1400 
     10 C10        52.1851   28.0037    3.9765 C.1       1 <0>         0.0000 
     11 C11        51.2897   27.4617    4.6055 C.1       1 <0>         0.0000 
     12 C12        48.0188   26.8089    4.3560 C.ar      1 <0>         0.0850 
     13 C13        45.4127   27.8560    4.0506 C.ar      1 <0>         0.1567 
     14 C14        45.6931   31.8540    4.4415 C.3       1 <0>         0.1567 
     15 N1         43.9753   30.2148    4.3389 N.pl3     1 <0>        -0.5376 
     16 O1         43.4773   28.5411    2.3905 O.2       1 <0>        -0.4680 
     17 O2         42.8420   27.8909    4.7755 O.2       1 <0>        -0.4680 
     18 O3         49.2778   26.2533    4.4292 O.3       1 <0>        -0.2850 
     19 S1         45.1627   33.5642    4.7057 S.3       1 <0>        -0.3350 
     20 S2         43.7711   28.5314    3.8315 S.o2      1 <0>         0.8327 
     21 H1         54.1473   28.0297    3.2121 H         1 <0>         0.0600 
     22 H2         53.4939   29.6217    3.6531 H         1 <0>         0.0600 
     23 H3         52.9300   28.8075    2.1785 H         1 <0>         0.0600 
     24 H4         47.6224   25.7707    2.5038 H         1 <0>         0.1150 
     25 H5         48.0549   28.0071    6.1851 H         1 <0>         0.1150 
     26 H6         45.3302   26.6932    2.2306 H         1 <0>         0.1150 
     27 H7         45.7908   28.9106    5.9027 H         1 <0>         0.1150 
     28 H8         45.8381   31.6981    6.6139 H         1 <0>         0.0600 
     29 H9         46.3388   30.2617    5.7379 H         1 <0>         0.0600 
     30 H10        43.4618   31.2683    6.0739 H         1 <0>         0.0733 
     31 H11        44.0841   29.6397    6.3859 H         1 <0>         0.0733 
     32 H12        45.2335   30.6163    2.6839 H         1 <0>         0.0733 
     33 H13        44.0200   31.8603    3.0255 H         1 <0>         0.0733 
     34 H14        50.6438   26.0375    5.9840 H         1 <0>         0.0300 
     35 H15        49.7286   27.5617    5.9831 H         1 <0>         0.0300 
     36 H16        46.7078   31.8987    4.0459 H         1 <0>         0.0600 
     37 H17        46.3122   33.9832    5.2454 H         1 <0>         0.1550 
@<TRIPOS>BOND
     1    1   10 1    
     2    1   21 1    
     3    1   22 1    
     4    1   23 1    
     5    2    4 ar   
     6    2   12 ar   
     7    2   24 1    
     8    3    5 ar   
     9    3   12 ar   
    10    3   25 1    
    11    4   13 ar   
    12    4   26 1    
    13    5   13 ar   
    14    5   27 1    
    15    6    7 1    
    16    6   14 1    
    17    6   28 1    
    18    6   29 1    
    19    7   15 1    
    20    7   30 1    
    21    7   31 1    
    22    8   14 1    
    23    8   15 1    
    24    8   32 1    
    25    8   33 1    
    26    9   11 1    
    27    9   18 1    
    28    9   34 1    
    29    9   35 1    
    30   10   11 3    
    31   12   18 1    
    32   13   20 1    
    33   14   19 1    
    34   14   36 1    
    35   15   20 1    
    36   16   20 2    
    37   17   20 2    
    38   19   37 1    
@<TRIPOS>SUBSTRUCTURE
     1 <0>         1 GROUP             0       ****    0 ROOT    
@<TRIPOS>MOLECULE
283_1_2OI0
37   38    1
SMALL
USER_CHARGES


@<TRIPOS>ATOM
      1 C1         42.9631   28.5934   -3.5551 C.3       1 <0>        -0.1800 
      2 C2         44.0840   29.1919    1.0989 C.ar      1 <0>        -0.1150 
      3 C3         42.7824   28.1516    2.8748 C.ar      1 <0>        -0.1150 
      4 C4         45.2725   28.8179    1.7474 C.ar      1 <0>        -0.1150 
      5 C5         43.9722   27.7796    3.5320 C.ar      1 <0>        -0.1150 
      6 C6         45.8255   31.0915    5.6192 C.3       1 <0>        -0.0833 
      7 C7         46.8206   30.3616    4.7070 C.3       1 <0>         0.0588 
      8 C8         45.9245   28.7959    6.2702 C.3       1 <0>         0.0588 
      9 C9         41.5655   30.1556    0.0331 C.3       1 <0>         0.1400 
     10 C10        42.3794   29.1470   -2.3277 C.1       1 <0>         0.0000 
     11 C11        41.9624   29.6074   -1.2762 C.1       1 <0>         0.0000 
     12 C12        42.8204   28.8539    1.6496 C.ar      1 <0>         0.0850 
     13 C13        45.2148   28.1237    2.9683 C.ar      1 <0>         0.1567 
     14 C14        44.9673   29.9803    6.2104 C.3       1 <0>         0.1567 
     15 N1         46.7625   28.9387    5.0786 N.pl3     1 <0>        -0.5376 
     16 O1         46.6124   26.4147    4.4440 O.2       1 <0>        -0.4680 
     17 O2         47.8607   28.0218    2.9141 O.2       1 <0>        -0.4680 
     18 O3         41.6094   29.1573    1.0545 O.3       1 <0>        -0.2850 
     19 S1         44.3325   30.4068    7.8541 S.3       1 <0>        -0.3350 
     20 S2         46.7387   27.7404    3.8221 S.o2      1 <0>         0.8327 
     21 H1         44.0513   28.5765   -3.4714 H         1 <0>         0.0600 
     22 H2         42.6824   29.2149   -4.4054 H         1 <0>         0.0600 
     23 H3         42.5999   27.5768   -3.7144 H         1 <0>         0.0600 
     24 H4         44.1818   29.7401    0.1747 H         1 <0>         0.1150 
     25 H5         41.8307   27.8904    3.3128 H         1 <0>         0.1150 
     26 H6         46.2239   29.0930    1.3172 H         1 <0>         0.1150 
     27 H7         43.9296   27.2463    4.4710 H         1 <0>         0.1150 
     28 H8         46.3613   31.6080    6.4100 H         1 <0>         0.0600 
     29 H9         45.2362   31.8353    5.0845 H         1 <0>         0.0600 
     30 H10        47.8338   30.7396    4.8440 H         1 <0>         0.0733 
     31 H11        46.5548   30.4917    3.6583 H         1 <0>         0.0733 
     32 H12        45.4066   27.8455    6.2916 H         1 <0>         0.0733 
     33 H13        46.5669   28.8422    7.1524 H         1 <0>         0.0733 
     34 H14        42.1911   31.0155    0.2788 H         1 <0>         0.0300 
     35 H15        40.5454   30.5274   -0.0618 H         1 <0>         0.0300 
     36 H16        44.1344   29.7549    5.5445 H         1 <0>         0.0600 
     37 H17        45.5205   30.6677    8.4084 H         1 <0>         0.1550 
@<TRIPOS>BOND
     1    1   10 1    
     2    1   21 1    
     3    1   22 1    
     4    1   23 1    
     5    2    4 ar   
     6    2   12 ar   
     7    2   24 1    
     8    3    5 ar   
     9    3   12 ar   
    10    3   25 1    
    11    4   13 ar   
    12    4   26 1    
    13    5   13 ar   
    14    5   27 1    
    15    6    7 1    
    16    6   14 1    
    17    6   28 1    
    18    6   29 1    
    19    7   15 1    
    20    7   30 1    
    21    7   31 1    
    22    8   14 1    
    23    8   15 1    
    24    8   32 1    
    25    8   33 1    
    26    9   11 1    
    27    9   18 1    
    28    9   34 1    
    29    9   35 1    
    30   10   11 3    
    31   12   18 1    
    32   13   20 1    
    33   14   19 1    
    34   14   36 1    
    35   15   20 1    
    36   16   20 2    
    37   17   20 2    
    38   19   37 1    
@<TRIPOS>SUBSTRUCTURE
     1 <0>         1 GROUP             0       ****    0 ROOT    
@<TRIPOS>MOLECULE
283_1_2OI0
37   38    1
SMALL
USER_CHARGES


@<TRIPOS>ATOM
      1 C1         53.3770   28.7540    3.2035 C.3       1 <0>        -0.1800 
      2 C2         48.9307   27.4462    3.9183 C.ar      1 <0>        -0.1150 
      3 C3         47.7806   25.3143    3.6422 C.ar      1 <0>        -0.1150 
      4 C4         47.7804   28.1294    3.4794 C.ar      1 <0>        -0.1150 
      5 C5         46.6268   25.9930    3.2029 C.ar      1 <0>        -0.1150 
      6 C6         43.5246   30.2547    5.2210 C.3       1 <0>        -0.0833 
      7 C7         44.6365   29.2129    5.1812 C.3       1 <0>         0.0588 
      8 C8         42.7240   28.3089    3.9897 C.3       1 <0>         0.0588 
      9 C9         50.9223   26.1782    5.3610 C.3       1 <0>         0.1400 
     10 C10        52.5175   27.8462    3.9770 C.1       1 <0>         0.0000 
     11 C11        51.7974   27.0901    4.6101 C.1       1 <0>         0.0000 
     12 C12        48.9460   26.0381    4.0048 C.ar      1 <0>         0.0850 
     13 C13        46.6330   27.3982    3.1208 C.ar      1 <0>         0.1567 
     14 C14        42.2715   29.4666    4.8886 C.3       1 <0>         0.1567 
     15 N1         44.2017   28.3484    4.0688 N.pl3     1 <0>        -0.5376 
     16 O1         45.5623   29.6499    2.2521 O.2       1 <0>        -0.4680 
     17 O2         44.4279   27.4541    1.6142 O.2       1 <0>        -0.4680 
     18 O3         50.1139   25.4537    4.4449 O.3       1 <0>        -0.2850 
     19 S1         41.5361   28.8031    6.4035 S.3       1 <0>        -0.3350 
     20 S2         45.1673   28.2734    2.5873 S.o2      1 <0>         0.8327 
     21 H1         54.4030   28.3862    3.2099 H         1 <0>         0.0600 
     22 H2         53.3518   29.7510    3.6434 H         1 <0>         0.0600 
     23 H3         53.0235   28.8087    2.1738 H         1 <0>         0.0600 
     24 H4         49.8117   28.0081    4.1923 H         1 <0>         0.1150 
     25 H5         47.7457   24.2368    3.6931 H         1 <0>         0.1150 
     26 H6         47.7768   29.2079    3.4180 H         1 <0>         0.1150 
     27 H7         45.7437   25.4340    2.9310 H         1 <0>         0.1150 
     28 H8         43.4593   30.7608    6.1842 H         1 <0>         0.0600 
     29 H9         43.7000   31.0199    4.4648 H         1 <0>         0.0600 
     30 H10        44.6826   28.6120    6.0894 H         1 <0>         0.0733 
     31 H11        45.6229   29.6365    4.9926 H         1 <0>         0.0733 
     32 H12        42.4027   28.4290    2.9550 H         1 <0>         0.0733 
     33 H13        42.3732   27.3433    4.3540 H         1 <0>         0.0733 
     34 H14        51.5541   25.5083    5.9458 H         1 <0>         0.0300 
     35 H15        50.3120   26.7769    6.0386 H         1 <0>         0.0300 
     36 H16        41.5086   30.0848    4.4153 H         1 <0>         0.0600 
     37 H17        42.6212   28.1298    6.8000 H         1 <0>         0.1550 
@<TRIPOS>BOND
     1    1   10 1    
     2    1   21 1    
     3    1   22 1    
     4    1   23 1    
     5    2    4 ar   
     6    2   12 ar   
     7    2   24 1    
     8    3    5 ar   
     9    3   12 ar   
    10    3   25 1    
    11    4   13 ar   
    12    4   26 1    
    13    5   13 ar   
    14    5   27 1    
    15    6    7 1    
    16    6   14 1    
    17    6   28 1    
    18    6   29 1    
    19    7   15 1    
    20    7   30 1    
    21    7   31 1    
    22    8   14 1    
    23    8   15 1    
    24    8   32 1    
    25    8   33 1    
    26    9   11 1    
    27    9   18 1    
    28    9   34 1    
    29    9   35 1    
    30   10   11 3    
    31   12   18 1    
    32   13   20 1    
    33   14   19 1    
    34   14   36 1    
    35   15   20 1    
    36   16   20 2    
    37   17   20 2    
    38   19   37 1    
@<TRIPOS>SUBSTRUCTURE
     1 <0>         1 GROUP             0       ****    0 ROOT    
@<TRIPOS>MOLECULE
283_1_2OI0
37   38    1
SMALL
USER_CHARGES


@<TRIPOS>ATOM
      1 C1         52.7571   29.1620    2.8174 C.3       1 <0>        -0.1800 
      2 C2         48.8124   27.6486    4.3725 C.ar      1 <0>        -0.1150 
      3 C3         47.9885   25.4971    3.5960 C.ar      1 <0>        -0.1150 
      4 C4         47.6030   28.2531    4.0037 C.ar      1 <0>        -0.1150 
      5 C5         46.7626   26.0962    3.2475 C.ar      1 <0>        -0.1150 
      6 C6         45.5917   30.2810    6.1865 C.3       1 <0>        -0.0833 
      7 C7         44.6707   29.2481    5.5320 C.3       1 <0>         0.0588 
      8 C8         45.3336   30.8402    3.8334 C.3       1 <0>         0.0588 
      9 C9         51.1726   26.2680    5.2693 C.3       1 <0>         0.1400 
     10 C10        52.4079   28.0802    3.7375 C.1       1 <0>         0.0000 
     11 C11        51.9610   27.2137    4.4678 C.1       1 <0>         0.0000 
     12 C12        49.0312   26.2667    4.1496 C.ar      1 <0>         0.0850 
     13 C13        46.5773   27.4790    3.4331 C.ar      1 <0>         0.1567 
     14 C14        45.6043   31.4611    5.2123 C.3       1 <0>         0.1567 
     15 N1         44.7653   29.5105    4.0926 N.pl3     1 <0>        -0.5376 
     16 O1         45.1438   28.7892    1.6307 O.2       1 <0>        -0.4680 
     17 O2         43.9604   27.2070    3.2425 O.2       1 <0>        -0.4680 
     18 O3         50.2107   25.6114    4.4439 O.3       1 <0>        -0.2850 
     19 S1         44.2656   32.6101    5.6413 S.3       1 <0>        -0.3350 
     20 S2         45.0041   28.2071    2.9738 S.o2      1 <0>         0.8327 
     21 H1         53.1627   30.0030    3.3717 H         1 <0>         0.0600 
     22 H2         51.8648   29.4754    2.2761 H         1 <0>         0.0600 
     23 H3         53.4855   28.8067    2.1005 H         1 <0>         0.0600 
     24 H4         49.5592   28.2893    4.8138 H         1 <0>         0.1150 
     25 H5         48.1316   24.4382    3.4381 H         1 <0>         0.1150 
     26 H6         47.4956   29.3091    4.1723 H         1 <0>         0.1150 
     27 H7         45.9669   25.4942    2.8343 H         1 <0>         0.1150 
     28 H8         45.2776   30.5514    7.1956 H         1 <0>         0.0600 
     29 H9         46.5974   29.8687    6.2681 H         1 <0>         0.0600 
     30 H10        43.6366   29.3839    5.8505 H         1 <0>         0.0733 
     31 H11        44.9673   28.2267    5.7748 H         1 <0>         0.0733 
     32 H12        46.2528   30.7541    3.2555 H         1 <0>         0.0733 
     33 H13        44.6423   31.4296    3.2304 H         1 <0>         0.0733 
     34 H14        51.8452   25.5323    5.6991 H         1 <0>         0.0300 
     35 H15        50.7102   26.7940    6.1052 H         1 <0>         0.0300 
     36 H16        46.5517   32.0004    5.2383 H         1 <0>         0.0600 
     37 H17        43.2779   31.7235    5.4971 H         1 <0>         0.1550 
@<TRIPOS>BOND
     1    1   10 1    
     2    1   21 1    
     3    1   22 1    
     4    1   23 1    
     5    2    4 ar   
     6    2   12 ar   
     7    2   24 1    
     8    3    5 ar   
     9    3   12 ar   
    10    3   25 1    
    11    4   13 ar   
    12    4   26 1    
    13    5   13 ar   
    14    5   27 1    
    15    6    7 1    
    16    6   14 1    
    17    6   28 1    
    18    6   29 1    
    19    7   15 1    
    20    7   30 1    
    21    7   31 1    
    22    8   14 1    
    23    8   15 1    
    24    8   32 1    
    25    8   33 1    
    26    9   11 1    
    27    9   18 1    
    28    9   34 1    
    29    9   35 1    
    30   10   11 3    
    31   12   18 1    
    32   13   20 1    
    33   14   19 1    
    34   14   36 1    
    35   15   20 1    
    36   16   20 2    
    37   17   20 2    
    38   19   37 1    
@<TRIPOS>SUBSTRUCTURE
     1 <0>         1 GROUP             0       ****    0 ROOT    
@<TRIPOS>MOLECULE
283_1_2OI0
37   38    1
SMALL
USER_CHARGES


@<TRIPOS>ATOM
      1 C1         53.1602   28.7966    3.0652 C.3       1 <0>        -0.1800 
      2 C2         48.2611   28.0072    4.3891 C.ar      1 <0>        -0.1150 
      3 C3         47.1641   26.0502    3.4347 C.ar      1 <0>        -0.1150 
      4 C4         47.1047   28.7758    4.1551 C.ar      1 <0>        -0.1150 
      5 C5         46.0044   26.8146    3.1988 C.ar      1 <0>        -0.1150 
      6 C6         42.9048   30.5279    6.3018 C.3       1 <0>        -0.0833 
      7 C7         44.0478   29.5577    6.0272 C.3       1 <0>         0.0588 
      8 C8         42.1208   28.8220    4.7467 C.3       1 <0>         0.0588 
      9 C9         50.3942   26.5512    5.2150 C.3       1 <0>         0.1400 
     10 C10        52.1925   28.0014    3.8347 C.1       1 <0>         0.0000 
     11 C11        51.3809   27.3422    4.4655 C.1       1 <0>         0.0000 
     12 C12        48.3059   26.6425    4.0339 C.ar      1 <0>         0.0850 
     13 C13        45.9811   28.1755    3.5578 C.ar      1 <0>         0.1567 
     14 C14        41.6661   29.7684    5.8650 C.3       1 <0>         0.1567 
     15 N1         43.5984   28.9043    4.7843 N.pl3     1 <0>        -0.5376 
     16 O1         44.9058   30.5663    3.2435 O.2       1 <0>        -0.4680 
     17 O2         43.7222   28.5669    2.1869 O.2       1 <0>        -0.4680 
     18 O3         49.4776   25.9677    4.3001 O.3       1 <0>        -0.2850 
     19 S1         41.0128   28.7998    7.2474 S.3       1 <0>        -0.3350 
     20 S2         44.5071   29.1513    3.2856 S.o2      1 <0>         0.8327 
     21 H1         54.0391   28.1924    2.8403 H         1 <0>         0.0600 
     22 H2         53.4645   29.6690    3.6435 H         1 <0>         0.0600 
     23 H3         52.7060   29.1278    2.1312 H         1 <0>         0.0600 
     24 H4         49.1239   28.4690    4.8465 H         1 <0>         0.1150 
     25 H5         47.1521   25.0100    3.1472 H         1 <0>         0.1150 
     26 H6         47.0785   29.8196    4.4319 H         1 <0>         0.1150 
     27 H7         45.1394   26.3549    2.7442 H         1 <0>         0.1150 
     28 H8         42.8607   30.8383    7.3458 H         1 <0>         0.0600 
     29 H9         43.0251   31.4295    5.7011 H         1 <0>         0.0600 
     30 H10        44.1492   28.7972    6.8014 H         1 <0>         0.0733 
     31 H11        45.0117   30.0483    5.8917 H         1 <0>         0.0733 
     32 H12        41.7554   29.1241    3.7652 H         1 <0>         0.0733 
     33 H13        41.8165   27.7915    4.9302 H         1 <0>         0.0733 
     34 H14        50.9311   25.7865    5.7781 H         1 <0>         0.0300 
     35 H15        49.8857   27.2182    5.9125 H         1 <0>         0.0300 
     36 H16        40.8654   30.4346    5.5438 H         1 <0>         0.0600 
     37 H17        42.1357   28.1104    7.4755 H         1 <0>         0.1550 
@<TRIPOS>BOND
     1    1   10 1    
     2    1   21 1    
     3    1   22 1    
     4    1   23 1    
     5    2    4 ar   
     6    2   12 ar   
     7    2   24 1    
     8    3    5 ar   
     9    3   12 ar   
    10    3   25 1    
    11    4   13 ar   
    12    4   26 1    
    13    5   13 ar   
    14    5   27 1    
    15    6    7 1    
    16    6   14 1    
    17    6   28 1    
    18    6   29 1    
    19    7   15 1    
    20    7   30 1    
    21    7   31 1    
    22    8   14 1    
    23    8   15 1    
    24    8   32 1    
    25    8   33 1    
    26    9   11 1    
    27    9   18 1    
    28    9   34 1    
    29    9   35 1    
    30   10   11 3    
    31   12   18 1    
    32   13   20 1    
    33   14   19 1    
    34   14   36 1    
    35   15   20 1    
    36   16   20 2    
    37   17   20 2    
    38   19   37 1    
@<TRIPOS>SUBSTRUCTURE
     1 <0>         1 GROUP             0       ****    0 ROOT    
@<TRIPOS>MOLECULE
283_1_2OI0
37   38    1
SMALL
USER_CHARGES


@<TRIPOS>ATOM
      1 C1         53.1555   20.9809    3.4961 C.3       1 <0>        -0.1800 
      2 C2         48.5181   25.2111    3.6442 C.ar      1 <0>        -0.1150 
      3 C3         49.7557   27.3156    3.7133 C.ar      1 <0>        -0.1150 
      4 C4         47.3028   25.9230    3.6250 C.ar      1 <0>        -0.1150 
      5 C5         48.5427   28.0276    3.6719 C.ar      1 <0>        -0.1150 
      6 C6         44.0290   29.7604    6.7265 C.3       1 <0>        -0.0833 
      7 C7         43.9614   28.7948    5.5378 C.3       1 <0>         0.0588 
      8 C8         46.2574   29.1338    6.1356 C.3       1 <0>         0.0588 
      9 C9         51.2788   24.5645    2.5264 C.3       1 <0>         0.1400 
     10 C10        52.5132   22.2512    3.1289 C.1       1 <0>         0.0000 
     11 C11        51.9628   23.3028    2.8439 C.1       1 <0>         0.0000 
     12 C12        49.7472   25.9061    3.6819 C.ar      1 <0>         0.0850 
     13 C13        47.3194   27.3303    3.6328 C.ar      1 <0>         0.1567 
     14 C14        45.4522   30.3085    6.6892 C.3       1 <0>         0.1567 
     15 N1         45.3475   28.4068    5.2375 N.pl3     1 <0>        -0.5376 
     16 O1         46.0219   29.5903    3.0373 O.2       1 <0>        -0.4680 
     17 O2         44.7599   27.3800    2.9385 O.2       1 <0>        -0.4680 
     18 O3         50.9362   25.2302    3.7312 O.3       1 <0>        -0.2850 
     19 S1         45.5544   31.7139    5.5402 S.3       1 <0>        -0.3350 
     20 S2         45.7766   28.2405    3.5677 S.o2      1 <0>         0.8327 
     21 H1         52.4214   20.3200    3.9547 H         1 <0>         0.0600 
     22 H2         53.9624   21.1609    4.2063 H         1 <0>         0.0600 
     23 H3         53.5615   20.5058    2.6027 H         1 <0>         0.0600 
     24 H4         48.5070   24.1314    3.6389 H         1 <0>         0.1150 
     25 H5         50.6923   27.8528    3.7546 H         1 <0>         0.1150 
     26 H6         46.3629   25.3916    3.5930 H         1 <0>         0.1150 
     27 H7         48.5535   29.1078    3.6793 H         1 <0>         0.1150 
     28 H8         43.2612   30.5338    6.6879 H         1 <0>         0.0600 
     29 H9         43.8813   29.2063    7.6544 H         1 <0>         0.0600 
     30 H10        43.5300   29.2984    4.6701 H         1 <0>         0.0733 
     31 H11        43.3547   27.9146    5.7507 H         1 <0>         0.0733 
     32 H12        46.5544   28.4618    6.9413 H         1 <0>         0.0733 
     33 H13        47.1626   29.4572    5.6273 H         1 <0>         0.0733 
     34 H14        51.9623   25.2050    1.9720 H         1 <0>         0.0300 
     35 H15        50.4238   24.3439    1.8855 H         1 <0>         0.0300 
     36 H16        45.8028   30.6265    7.6715 H         1 <0>         0.0600 
     37 H17        45.4272   30.9791    4.4275 H         1 <0>         0.1550 
@<TRIPOS>BOND
     1    1   10 1    
     2    1   21 1    
     3    1   22 1    
     4    1   23 1    
     5    2    4 ar   
     6    2   12 ar   
     7    2   24 1    
     8    3    5 ar   
     9    3   12 ar   
    10    3   25 1    
    11    4   13 ar   
    12    4   26 1    
    13    5   13 ar   
    14    5   27 1    
    15    6    7 1    
    16    6   14 1    
    17    6   28 1    
    18    6   29 1    
    19    7   15 1    
    20    7   30 1    
    21    7   31 1    
    22    8   14 1    
    23    8   15 1    
    24    8   32 1    
    25    8   33 1    
    26    9   11 1    
    27    9   18 1    
    28    9   34 1    
    29    9   35 1    
    30   10   11 3    
    31   12   18 1    
    32   13   20 1    
    33   14   19 1    
    34   14   36 1    
    35   15   20 1    
    36   16   20 2    
    37   17   20 2    
    38   19   37 1    
@<TRIPOS>SUBSTRUCTURE
     1 <0>         1 GROUP             0       ****    0 ROOT    
