@<TRIPOS>MOLECULE
JRZ_A1203_3NY8
48   49    1
SMALL
USER_CHARGES


@<TRIPOS>ATOM
      1 C1         -0.0580    0.4225   48.7690 C.3       1 <0>        -0.0650 
      2 C2          2.7866    9.7430   54.9228 C.3       1 <0>        -0.1800 
      3 C3          0.3574    9.4262   54.3524 C.3       1 <0>        -0.1800 
      4 C4          3.7967    6.4897   54.1067 C.3       1 <0>        -0.1800 
      5 C5          0.8546    2.7701   48.4268 C.ar      1 <0>        -0.1150 
      6 C6          1.6429    3.8688   48.8428 C.ar      1 <0>        -0.1150 
      7 C7          2.2139    1.1111   52.6651 C.3       1 <0>        -0.1200 
      8 C8          1.5109    0.4633   51.4521 C.3       1 <0>        -0.0050 
      9 C9          2.9502    2.3681   52.1472 C.3       1 <0>        -0.0050 
     10 C10         2.5101    5.8415   51.1847 C.3       1 <0>         0.1400 
     11 C11         0.7892    1.5965   49.2130 C.ar      1 <0>        -0.1150 
     12 C12         2.3743    3.8084   50.0481 C.ar      1 <0>         0.0850 
     13 C13         1.4913    1.5695   50.4310 C.ar      1 <0>        -0.1150 
     14 C14         2.2793    2.6424   50.8294 C.ar      1 <0>        -0.1150 
     15 C15         1.7117    8.7247   54.4955 C.3       1 <0>         0.2300 
     16 C16         3.3889    7.4990   53.0137 C.3       1 <0>         0.2300 
     17 C17         3.5668    6.8828   51.5978 C.3       1 <0>         0.2050 
     18 N1          2.0213    8.0225   53.2267 N.4       1 <0>        -0.2000 
     19 O1          3.6546    7.8696   50.5861 O.3       1 <0>        -0.6830 
     20 O2          3.1761    4.8462   50.4292 O.3       1 <0>        -0.2850 
     21 H1         -0.2742    0.4873   47.7028 H         1 <0>         0.0600 
     22 H2          0.4546   -0.5217   48.9541 H         1 <0>         0.0600 
     23 H3         -1.0065    0.4219   49.3063 H         1 <0>         0.0600 
     24 H4          2.4736   10.2778   55.8200 H         1 <0>         0.0600 
     25 H5          2.9647   10.4840   54.1420 H         1 <0>         0.0600 
     26 H6          3.7388    9.2690   55.1596 H         1 <0>         0.0600 
     27 H7         -0.0865    9.6226   55.3282 H         1 <0>         0.0600 
     28 H8          0.4496   10.3726   53.8167 H         1 <0>         0.0600 
     29 H9         -0.3454    8.8225   53.7869 H         1 <0>         0.0600 
     30 H10         4.8546    6.2442   54.0267 H         1 <0>         0.0600 
     31 H11         3.6573    6.8792   55.1140 H         1 <0>         0.0600 
     32 H12         3.2370    5.5590   54.0267 H         1 <0>         0.0600 
     33 H13         0.3030    2.8268   47.4995 H         1 <0>         0.1150 
     34 H14         1.6794    4.7597   48.2355 H         1 <0>         0.1150 
     35 H15         2.8546    0.4225   53.2090 H         1 <0>         0.0600 
     36 H16         1.4386    1.4377   53.3587 H         1 <0>         0.0600 
     37 H17         0.5056    0.1182   51.6959 H         1 <0>         0.0600 
     38 H18         2.0856   -0.3774   51.0634 H         1 <0>         0.0600 
     39 H19         4.0069    2.1609   51.9742 H         1 <0>         0.0600 
     40 H20         2.8694    3.2146   52.8267 H         1 <0>         0.0600 
     41 H21         2.0629    5.3732   52.0619 H         1 <0>         0.0300 
     42 H22         1.6954    6.2966   50.6174 H         1 <0>         0.0300 
     43 H23         1.6157    7.9628   55.2690 H         1 <0>         0.0600 
     44 H24         4.0546    8.3559   53.0782 H         1 <0>         0.0600 
     45 H25         4.5445    6.4013   51.5996 H         1 <0>         0.0600 
     46 H26         1.3630    7.2667   53.1206 H         1 <0>         0.3100 
     47 H27         1.8201    8.6928   52.4667 H         1 <0>         0.3100 
     48 H28         2.7917    8.2338   50.3884 H         1 <0>         0.4180 
@<TRIPOS>BOND
     1    1   11 1    
     2    1   21 1    
     3    1   22 1    
     4    1   23 1    
     5    2   15 1    
     6    2   24 1    
     7    2   25 1    
     8    2   26 1    
     9    3   15 1    
    10    3   27 1    
    11    3   28 1    
    12    3   29 1    
    13    4   16 1    
    14    4   30 1    
    15    4   31 1    
    16    4   32 1    
    17    5    6 ar   
    18    5   11 ar   
    19    5   33 1    
    20    6   12 ar   
    21    6   34 1    
    22    7    8 1    
    23    7    9 1    
    24    7   35 1    
    25    7   36 1    
    26    8   13 1    
    27    8   37 1    
    28    8   38 1    
    29    9   14 1    
    30    9   39 1    
    31    9   40 1    
    32   10   17 1    
    33   10   20 1    
    34   10   41 1    
    35   10   42 1    
    36   11   13 ar   
    37   12   14 ar   
    38   12   20 1    
    39   13   14 ar   
    40   15   18 1    
    41   15   43 1    
    42   16   17 1    
    43   16   18 1    
    44   16   44 1    
    45   17   19 1    
    46   17   45 1    
    47   18   46 1    
    48   18   47 1    
    49   19   48 1    
@<TRIPOS>SUBSTRUCTURE
     1 <0>         1 GROUP             0       ****    0 ROOT    
@<TRIPOS>MOLECULE
JRZ_A1203_3NY8
48   49    1
SMALL
USER_CHARGES


@<TRIPOS>ATOM
      1 C1         -0.0976    0.3841   48.8227 C.3       1 <0>        -0.0650 
      2 C2          1.3471    8.6122   55.5479 C.3       1 <0>        -0.1800 
      3 C3          3.0764   10.0273   54.3961 C.3       1 <0>        -0.1800 
      4 C4          3.7931    6.4798   54.0929 C.3       1 <0>        -0.1800 
      5 C5          0.8546    2.7046   48.4267 C.ar      1 <0>        -0.1150 
      6 C6          1.6379    3.8092   48.8267 C.ar      1 <0>        -0.1150 
      7 C7          2.2042    1.1073   52.6932 C.3       1 <0>        -0.1200 
      8 C8          1.4885    0.4484   51.4940 C.3       1 <0>        -0.0050 
      9 C9          2.9352    2.3603   52.1581 C.3       1 <0>        -0.0050 
     10 C10         2.4605    5.7973   51.1761 C.3       1 <0>         0.1400 
     11 C11         0.7708    1.5505   49.2387 C.ar      1 <0>        -0.1150 
     12 C12         2.3552    3.7696   50.0387 C.ar      1 <0>         0.0850 
     13 C13         1.4717    1.5391   50.4570 C.ar      1 <0>        -0.1150 
     14 C14         2.2616    2.6161   50.8384 C.ar      1 <0>        -0.1150 
     15 C15         1.8411    9.1293   54.2063 C.3       1 <0>         0.2300 
     16 C16         3.3668    7.4608   52.9839 C.3       1 <0>         0.2300 
     17 C17         3.5270    6.8226   51.5797 C.3       1 <0>         0.2050 
     18 N1          2.0147    8.0226   53.2267 N.4       1 <0>        -0.2000 
     19 O1          3.6546    7.7897   50.5524 O.3       1 <0>        -0.6830 
     20 O2          3.1382    4.8224   50.4066 O.3       1 <0>        -0.2850 
     21 H1         -0.3046    0.4226   47.7536 H         1 <0>         0.0600 
     22 H2          0.3929   -0.5652   49.0396 H         1 <0>         0.0600 
     23 H3         -1.0497    0.4217   49.3522 H         1 <0>         0.0600 
     24 H4          1.0590    9.4325   56.2062 H         1 <0>         0.0600 
     25 H5          2.1547    8.0702   56.0267 H         1 <0>         0.0600 
     26 H6          0.4863    7.9508   55.4453 H         1 <0>         0.0600 
     27 H7          2.8598   10.8225   55.0987 H         1 <0>         0.0600 
     28 H8          3.9238    9.4855   54.8173 H         1 <0>         0.0600 
     29 H9          3.3893   10.4863   53.4591 H         1 <0>         0.0600 
     30 H10         4.8546    6.2443   54.0267 H         1 <0>         0.0600 
     31 H11         3.6570    6.8884   55.0897 H         1 <0>         0.0600 
     32 H12         3.2424    5.5426   54.0267 H         1 <0>         0.0600 
     33 H13         0.3071    2.7524   47.4964 H         1 <0>         0.1150 
     34 H14         1.6799    4.6887   48.2032 H         1 <0>         0.1150 
     35 H15         2.8546    0.4226   53.2294 H         1 <0>         0.0600 
     36 H16         1.4382    1.4361   53.3960 H         1 <0>         0.0600 
     37 H17         0.4819    0.1148   51.7486 H         1 <0>         0.0600 
     38 H18         2.0546   -0.4019   51.1135 H         1 <0>         0.0600 
     39 H19         3.9920    2.1540   51.9850 H         1 <0>         0.0600 
     40 H20         2.8547    3.2151   52.8267 H         1 <0>         0.0600 
     41 H21         2.0241    5.3228   52.0555 H         1 <0>         0.0300 
     42 H22         1.6435    6.2581   50.6170 H         1 <0>         0.0300 
     43 H23         1.0425    9.7509   53.7977 H         1 <0>         0.0600 
     44 H24         4.0546    8.2924   52.9790 H         1 <0>         0.0600 
     45 H25         4.4920    6.3167   51.5968 H         1 <0>         0.0600 
     46 H26         1.3327    7.2965   53.3819 H         1 <0>         0.3100 
     47 H27         1.7623    8.5122   52.3460 H         1 <0>         0.3100 
     48 H28         2.8043    8.1733   50.3399 H         1 <0>         0.4180 
@<TRIPOS>BOND
     1    1   11 1    
     2    1   21 1    
     3    1   22 1    
     4    1   23 1    
     5    2   15 1    
     6    2   24 1    
     7    2   25 1    
     8    2   26 1    
     9    3   15 1    
    10    3   27 1    
    11    3   28 1    
    12    3   29 1    
    13    4   16 1    
    14    4   30 1    
    15    4   31 1    
    16    4   32 1    
    17    5    6 ar   
    18    5   11 ar   
    19    5   33 1    
    20    6   12 ar   
    21    6   34 1    
    22    7    8 1    
    23    7    9 1    
    24    7   35 1    
    25    7   36 1    
    26    8   13 1    
    27    8   37 1    
    28    8   38 1    
    29    9   14 1    
    30    9   39 1    
    31    9   40 1    
    32   10   17 1    
    33   10   20 1    
    34   10   41 1    
    35   10   42 1    
    36   11   13 ar   
    37   12   14 ar   
    38   12   20 1    
    39   13   14 ar   
    40   15   18 1    
    41   15   43 1    
    42   16   17 1    
    43   16   18 1    
    44   16   44 1    
    45   17   19 1    
    46   17   45 1    
    47   18   46 1    
    48   18   47 1    
    49   19   48 1    
@<TRIPOS>SUBSTRUCTURE
     1 <0>         1 GROUP             0       ****    0 ROOT    
@<TRIPOS>MOLECULE
JRZ_A1203_3NY8
48   49    1
SMALL
USER_CHARGES


@<TRIPOS>ATOM
      1 C1          1.3847   -0.5943   52.2295 C.3       1 <0>        -0.0650 
      2 C2          0.4283    9.1635   54.3658 C.3       1 <0>        -0.1800 
      3 C3          2.7426    9.0921   55.3378 C.3       1 <0>        -0.1800 
      4 C4          4.0319    6.4396   53.9770 C.3       1 <0>        -0.1800 
      5 C5          2.5316    1.6614   52.4713 C.ar      1 <0>        -0.1150 
      6 C6          2.8325    2.9626   52.0043 C.ar      1 <0>        -0.1150 
      7 C7          0.4854    1.3625   48.1898 C.3       1 <0>        -0.1200 
      8 C8          0.4248    0.4837   49.4595 C.3       1 <0>        -0.0050 
      9 C9          0.9569    2.7614   48.6446 C.3       1 <0>        -0.0050 
     10 C10         2.2630    5.7643   51.1724 C.3       1 <0>         0.1400 
     11 C11         1.7307    0.7845   51.7070 C.ar      1 <0>        -0.1150 
     12 C12         2.3325    3.4204   50.7615 C.ar      1 <0>         0.0850 
     13 C13         1.2655    1.2375   50.4578 C.ar      1 <0>        -0.1150 
     14 C14         1.5675    2.5167   49.9984 C.ar      1 <0>        -0.1150 
     15 C15         1.9162    9.0254   54.0440 C.3       1 <0>         0.2300 
     16 C16         3.4513    7.3573   52.8768 C.3       1 <0>         0.2300 
     17 C17         3.4941    6.6550   51.4805 C.3       1 <0>         0.2050 
     18 N1          2.0836    7.7970   53.2274 N.4       1 <0>        -0.2000 
     19 O1          3.6544    7.6220   50.4502 O.3       1 <0>        -0.6830 
     20 O2          2.5720    4.6895   50.2845 O.3       1 <0>        -0.2850 
     21 H1          2.0445   -0.8827   53.0481 H         1 <0>         0.0600 
     22 H2          0.3575   -0.6073   52.5965 H         1 <0>         0.0600 
     23 H3          1.4848   -1.3387   51.4414 H         1 <0>         0.0600 
     24 H4          0.2104   10.1243   54.8047 H         1 <0>         0.0600 
     25 H5          0.1164    8.4231   55.1007 H         1 <0>         0.0600 
     26 H6         -0.1931    9.0642   53.4741 H         1 <0>         0.0600 
     27 H7          2.5351   10.0204   55.8715 H         1 <0>         0.0600 
     28 H8          2.5031    8.2770   56.0205 H         1 <0>         0.0600 
     29 H9          3.8140    9.0780   55.1400 H         1 <0>         0.0600 
     30 H10         5.1192    6.4225   53.9185 H         1 <0>         0.0600 
     31 H11         3.8101    6.7721   54.9866 H         1 <0>         0.0600 
     32 H12         3.6539    5.4212   53.9005 H         1 <0>         0.0600 
     33 H13         2.9142    1.3457   53.4321 H         1 <0>         0.1150 
     34 H14         3.4537    3.6032   52.6086 H         1 <0>         0.1150 
     35 H15        -0.4481    1.3749   47.6267 H         1 <0>         0.0600 
     36 H16         1.2528    0.9443   47.5331 H         1 <0>         0.0600 
     37 H17         0.7994   -0.5256   49.2781 H         1 <0>         0.0600 
     38 H18        -0.5987    0.4212   49.8330 H         1 <0>         0.0600 
     39 H19         0.1090    3.4249   48.7694 H         1 <0>         0.0600 
     40 H20         1.6547    3.2237   47.9458 H         1 <0>         0.0600 
     41 H21         1.8347    5.3837   52.1009 H         1 <0>         0.0300 
     42 H22         1.4647    6.3595   50.7221 H         1 <0>         0.0300 
     43 H23         2.2175    9.8727   53.4261 H         1 <0>         0.0600 
     44 H24         4.0546    8.2619   52.8321 H         1 <0>         0.0600 
     45 H25         4.3922    6.0384   51.4455 H         1 <0>         0.0600 
     46 H26         1.5512    7.0309   53.6108 H         1 <0>         0.3100 
     47 H27         1.6564    8.1187   52.3544 H         1 <0>         0.3100 
     48 H28         2.8277    8.0695   50.2732 H         1 <0>         0.4180 
@<TRIPOS>BOND
     1    1   11 1    
     2    1   21 1    
     3    1   22 1    
     4    1   23 1    
     5    2   15 1    
     6    2   24 1    
     7    2   25 1    
     8    2   26 1    
     9    3   15 1    
    10    3   27 1    
    11    3   28 1    
    12    3   29 1    
    13    4   16 1    
    14    4   30 1    
    15    4   31 1    
    16    4   32 1    
    17    5    6 ar   
    18    5   11 ar   
    19    5   33 1    
    20    6   12 ar   
    21    6   34 1    
    22    7    8 1    
    23    7    9 1    
    24    7   35 1    
    25    7   36 1    
    26    8   13 1    
    27    8   37 1    
    28    8   38 1    
    29    9   14 1    
    30    9   39 1    
    31    9   40 1    
    32   10   17 1    
    33   10   20 1    
    34   10   41 1    
    35   10   42 1    
    36   11   13 ar   
    37   12   14 ar   
    38   12   20 1    
    39   13   14 ar   
    40   15   18 1    
    41   15   43 1    
    42   16   17 1    
    43   16   18 1    
    44   16   44 1    
    45   17   19 1    
    46   17   45 1    
    47   18   46 1    
    48   18   47 1    
    49   19   48 1    
@<TRIPOS>SUBSTRUCTURE
     1 <0>         1 GROUP             0       ****    0 ROOT    
@<TRIPOS>MOLECULE
JRZ_A1203_3NY8
48   49    1
SMALL
USER_CHARGES


@<TRIPOS>ATOM
      1 C1         -0.2273    0.4225   48.5072 C.3       1 <0>        -0.0650 
      2 C2          4.2985    7.6296   55.2987 C.3       1 <0>        -0.1800 
      3 C3          2.9100    9.7205   54.9656 C.3       1 <0>        -0.1800 
      4 C4          1.4178    6.5847   52.4242 C.3       1 <0>        -0.1800 
      5 C5          0.8546    2.6822   48.3328 C.ar      1 <0>        -0.1150 
      6 C6          1.6546    3.7116   48.8544 C.ar      1 <0>        -0.1150 
      7 C7          1.8675    0.7324   52.5566 C.3       1 <0>        -0.1200 
      8 C8          1.1491    0.2113   51.2903 C.3       1 <0>        -0.0050 
      9 C9          2.6885    1.9731   52.1317 C.3       1 <0>        -0.0050 
     10 C10         3.0647    5.7909   50.0942 C.3       1 <0>         0.1400 
     11 C11         0.6373    1.5044   49.0738 C.ar      1 <0>        -0.1150 
     12 C12         2.2912    3.5590   50.1123 C.ar      1 <0>         0.0850 
     13 C13         1.2546    1.3643   50.3266 C.ar      1 <0>        -0.1150 
     14 C14         2.0891    2.3580   50.8119 C.ar      1 <0>        -0.1150 
     15 C15         3.0963    8.2505   54.5690 C.3       1 <0>         0.2300 
     16 C16         2.9422    6.8497   52.4686 C.3       1 <0>         0.2300 
     17 C17         3.6546    6.7784   51.0888 C.3       1 <0>         0.2050 
     18 N1          3.2546    8.1533   53.1002 N.4       1 <0>        -0.2000 
     19 O1          3.6546    8.0226   50.4267 O.3       1 <0>        -0.6830 
     20 O2          3.0811    4.5141   50.6934 O.3       1 <0>        -0.2850 
     21 H1         -0.7656    0.7701   47.6267 H         1 <0>         0.0600 
     22 H2          0.4546   -0.3775   48.2364 H         1 <0>         0.0600 
     23 H3         -0.9554    0.0569   49.2290 H         1 <0>         0.0600 
     24 H4          4.1770    7.7039   56.3797 H         1 <0>         0.0600 
     25 H5          5.2283    8.1366   55.0382 H         1 <0>         0.0600 
     26 H6          4.4209    6.5723   55.0624 H         1 <0>         0.0600 
     27 H7          2.7566    9.8225   56.0405 H         1 <0>         0.0600 
     28 H8          3.7781   10.3226   54.6942 H         1 <0>         0.0600 
     29 H9          2.0388   10.1510   54.4697 H         1 <0>         0.0600 
     30 H10         1.2052    5.5550   52.1377 H         1 <0>         0.0600 
     31 H11         0.9366    6.7293   53.3901 H         1 <0>         0.0600 
     32 H12         0.9085    7.2226   51.7062 H         1 <0>         0.0600 
     33 H13         0.3877    2.8104   47.3669 H         1 <0>         0.1150 
     34 H14         1.7721    4.5999   48.2557 H         1 <0>         0.1150 
     35 H15         2.4546   -0.0338   53.0605 H         1 <0>         0.0600 
     36 H16         1.1047    1.0625   53.2634 H         1 <0>         0.0600 
     37 H17         0.1098   -0.0453   51.4956 H         1 <0>         0.0600 
     38 H18         1.6546   -0.6603   50.8726 H         1 <0>         0.0600 
     39 H19         3.7397    1.7217   51.9856 H         1 <0>         0.0600 
     40 H20         2.6235    2.8046   52.8268 H         1 <0>         0.0600 
     41 H21         2.0532    6.1098   49.8337 H         1 <0>         0.0300 
     42 H22         3.6546    5.7710   49.1764 H         1 <0>         0.0300 
     43 H23         2.1966    7.7188   54.8767 H         1 <0>         0.0600 
     44 H24         3.3779    6.0613   53.0830 H         1 <0>         0.0600 
     45 H25         4.6974    6.5046   51.2561 H         1 <0>         0.0600 
     46 H26         2.6413    8.8225   52.6368 H         1 <0>         0.3100 
     47 H27         4.2131    8.3882   52.8620 H         1 <0>         0.3100 
     48 H28         2.7606    8.2825   50.1897 H         1 <0>         0.4180 
@<TRIPOS>BOND
     1    1   11 1    
     2    1   21 1    
     3    1   22 1    
     4    1   23 1    
     5    2   15 1    
     6    2   24 1    
     7    2   25 1    
     8    2   26 1    
     9    3   15 1    
    10    3   27 1    
    11    3   28 1    
    12    3   29 1    
    13    4   16 1    
    14    4   30 1    
    15    4   31 1    
    16    4   32 1    
    17    5    6 ar   
    18    5   11 ar   
    19    5   33 1    
    20    6   12 ar   
    21    6   34 1    
    22    7    8 1    
    23    7    9 1    
    24    7   35 1    
    25    7   36 1    
    26    8   13 1    
    27    8   37 1    
    28    8   38 1    
    29    9   14 1    
    30    9   39 1    
    31    9   40 1    
    32   10   17 1    
    33   10   20 1    
    34   10   41 1    
    35   10   42 1    
    36   11   13 ar   
    37   12   14 ar   
    38   12   20 1    
    39   13   14 ar   
    40   15   18 1    
    41   15   43 1    
    42   16   17 1    
    43   16   18 1    
    44   16   44 1    
    45   17   19 1    
    46   17   45 1    
    47   18   46 1    
    48   18   47 1    
    49   19   48 1    
@<TRIPOS>SUBSTRUCTURE
     1 <0>         1 GROUP             0       ****    0 ROOT    
@<TRIPOS>MOLECULE
JRZ_A1203_3NY8
48   49    1
SMALL
USER_CHARGES


@<TRIPOS>ATOM
      1 C1          0.9811   -0.7522   51.6656 C.3       1 <0>        -0.0650 
      2 C2          2.2711    9.7391   54.0842 C.3       1 <0>        -0.1800 
      3 C3          3.8699    8.0167   54.9726 C.3       1 <0>        -0.1800 
      4 C4          3.3282    5.3373   53.2724 C.3       1 <0>        -0.1800 
      5 C5          1.4868    1.6816   52.0031 C.ar      1 <0>        -0.1150 
      6 C6          1.6255    2.9993   51.5290 C.ar      1 <0>        -0.1150 
      7 C7          0.5789    0.9348   47.3869 C.3       1 <0>        -0.1200 
      8 C8          0.5461    0.0482   48.6506 C.3       1 <0>        -0.0050 
      9 C9          0.8179    2.3908   47.8343 C.3       1 <0>        -0.0050 
     10 C10         1.5952    5.7358   50.5350 C.3       1 <0>         0.1400 
     11 C11         1.1451    0.6452   51.1198 C.ar      1 <0>        -0.1150 
     12 C12         1.4627    3.3323   50.1626 C.ar      1 <0>         0.0850 
     13 C13         0.9381    0.9747   49.7656 C.ar      1 <0>        -0.1150 
     14 C14         1.1036    2.2793   49.3052 C.ar      1 <0>        -0.1150 
     15 C15         3.2550    8.6240   53.6970 C.3       1 <0>         0.2300 
     16 C16         3.4119    6.5181   52.3016 C.3       1 <0>         0.2300 
     17 C17         3.0581    6.1454   50.8351 C.3       1 <0>         0.2050 
     18 N1          2.5790    7.6226   52.8270 N.4       1 <0>        -0.2000 
     19 O1          3.4431    7.2225   49.9960 O.3       1 <0>        -0.6830 
     20 O2          1.5451    4.6132   49.6472 O.3       1 <0>        -0.2850 
     21 H1          1.8520   -1.0332   52.2571 H         1 <0>         0.0600 
     22 H2          0.1110   -0.7644   52.3203 H         1 <0>         0.0600 
     23 H3          0.8552   -1.4871   50.8762 H         1 <0>         0.0600 
     24 H4          2.7284   10.4225   54.7978 H         1 <0>         0.0600 
     25 H5          1.3682    9.3397   54.5481 H         1 <0>         0.0600 
     26 H6          1.9718   10.3422   53.2272 H         1 <0>         0.0600 
     27 H7          4.2238    8.7998   55.6441 H         1 <0>         0.0600 
     28 H8          3.1467    7.4157   55.5251 H         1 <0>         0.0600 
     29 H9          4.7417    7.4025   54.7509 H         1 <0>         0.0600 
     30 H10         3.6547    4.4090   52.8086 H         1 <0>         0.0600 
     31 H11         3.9582    5.4682   54.1493 H         1 <0>         0.0600 
     32 H12         2.3072    5.2226   53.6266 H         1 <0>         0.0600 
     33 H13         1.6130    1.4749   53.0559 H         1 <0>         0.1150 
     34 H14         1.7781    3.7489   52.2647 H         1 <0>         0.1150 
     35 H15        -0.3451    0.8507   46.8266 H         1 <0>         0.0600 
     36 H16         1.3886    0.6132   46.7316 H         1 <0>         0.0600 
     37 H17         1.2485   -0.7790   48.5691 H         1 <0>         0.0600 
     38 H18        -0.4534   -0.3490   48.8313 H         1 <0>         0.0600 
     39 H19        -0.0636    3.0087   47.6650 H         1 <0>         0.0600 
     40 H20         1.6545    2.8436   47.3107 H         1 <0>         0.0600 
     41 H21         1.0196    5.5644   51.4440 H         1 <0>         0.0300 
     42 H22         1.0700    6.5555   50.0450 H         1 <0>         0.0300 
     43 H23         4.0545    9.0850   53.1157 H         1 <0>         0.0600 
     44 H24         4.4546    6.8225   52.2776 H         1 <0>         0.0600 
     45 H25         3.7035    5.3106   50.5594 H         1 <0>         0.0600 
     46 H26         1.7820    7.2435   53.3141 H         1 <0>         0.3100 
     47 H27         2.2157    8.1837   52.0484 H         1 <0>         0.3100 
     48 H28         2.6870    7.7679   49.7762 H         1 <0>         0.4180 
@<TRIPOS>BOND
     1    1   11 1    
     2    1   21 1    
     3    1   22 1    
     4    1   23 1    
     5    2   15 1    
     6    2   24 1    
     7    2   25 1    
     8    2   26 1    
     9    3   15 1    
    10    3   27 1    
    11    3   28 1    
    12    3   29 1    
    13    4   16 1    
    14    4   30 1    
    15    4   31 1    
    16    4   32 1    
    17    5    6 ar   
    18    5   11 ar   
    19    5   33 1    
    20    6   12 ar   
    21    6   34 1    
    22    7    8 1    
    23    7    9 1    
    24    7   35 1    
    25    7   36 1    
    26    8   13 1    
    27    8   37 1    
    28    8   38 1    
    29    9   14 1    
    30    9   39 1    
    31    9   40 1    
    32   10   17 1    
    33   10   20 1    
    34   10   41 1    
    35   10   42 1    
    36   11   13 ar   
    37   12   14 ar   
    38   12   20 1    
    39   13   14 ar   
    40   15   18 1    
    41   15   43 1    
    42   16   17 1    
    43   16   18 1    
    44   16   44 1    
    45   17   19 1    
    46   17   45 1    
    47   18   46 1    
    48   18   47 1    
    49   19   48 1    
@<TRIPOS>SUBSTRUCTURE
     1 <0>         1 GROUP             0       ****    0 ROOT    
@<TRIPOS>MOLECULE
JRZ_A1203_3NY8
48   49    1
SMALL
USER_CHARGES


@<TRIPOS>ATOM
      1 C1         -0.1502    0.4216   48.5899 C.3       1 <0>        -0.0650 
      2 C2          4.4866    8.8548   55.5116 C.3       1 <0>        -0.1800 
      3 C3          3.8735   10.9241   54.2140 C.3       1 <0>        -0.1800 
      4 C4          1.0895    7.5156   53.6423 C.3       1 <0>        -0.1800 
      5 C5          0.8633    2.7430   48.8108 C.ar      1 <0>        -0.1150 
      6 C6          1.6535    3.6830   49.5109 C.ar      1 <0>        -0.1150 
      7 C7          2.0055    0.0447   52.5911 C.3       1 <0>        -0.1200 
      8 C8          1.2132   -0.1979   51.2877 C.3       1 <0>        -0.0050 
      9 C9          2.7290    1.4030   52.4475 C.3       1 <0>        -0.0050 
     10 C10         2.2082    5.2709   52.0044 C.3       1 <0>         0.1400 
     11 C11         0.6848    1.4397   49.3310 C.ar      1 <0>        -0.1150 
     12 C12         2.2718    3.3312   50.7357 C.ar      1 <0>         0.0850 
     13 C13         1.2997    1.1087   50.5492 C.ar      1 <0>        -0.1150 
     14 C14         2.1038    2.0193   51.2198 C.ar      1 <0>        -0.1150 
     15 C15         3.4443    9.4965   54.5768 C.3       1 <0>         0.2300 
     16 C16         2.6189    7.3822   53.4516 C.3       1 <0>         0.2300 
     17 C17         3.0947    6.4913   52.2711 C.3       1 <0>         0.2050 
     18 N1          3.2545    8.7124   53.3344 N.4       1 <0>        -0.2000 
     19 O1          3.2540    7.2251   51.0682 O.3       1 <0>        -0.6830 
     20 O2          3.0018    4.2363   51.4472 O.3       1 <0>        -0.2850 
     21 H1         -0.4816    0.8112   47.6257 H         1 <0>         0.0600 
     22 H2          0.4535   -0.4683   48.4273 H         1 <0>         0.0600 
     23 H3         -1.0337    0.1603   49.1714 H         1 <0>         0.0600 
     24 H4          4.6650    9.4851   56.3826 H         1 <0>         0.0600 
     25 H5          5.4426    8.7206   55.0064 H         1 <0>         0.0600 
     26 H6          4.1695    7.8839   55.8895 H         1 <0>         0.0600 
     27 H7          4.0540   11.5224   55.1062 H         1 <0>         0.0600 
     28 H8          4.7920   10.9287   53.6265 H         1 <0>         0.0600 
     29 H9          3.1055   11.4299   53.6267 H         1 <0>         0.0600 
     30 H10         0.6012    6.5495   53.7673 H         1 <0>         0.0600 
     31 H11         0.8574    8.0837   54.5426 H         1 <0>         0.0600 
     32 H12         0.5971    8.0214   52.8205 H         1 <0>         0.0600 
     33 H13         0.4056    3.0273   47.8745 H         1 <0>         0.1150 
     34 H14         1.7898    4.6772   49.1053 H         1 <0>         0.1150 
     35 H15         2.6779   -0.7762   52.8322 H         1 <0>         0.0600 
     36 H16         1.2901    0.1220   53.4114 H         1 <0>         0.0600 
     37 H17         0.1696   -0.4338   51.4941 H         1 <0>         0.0600 
     38 H18         1.6485   -1.0017   50.6940 H         1 <0>         0.0600 
     39 H19         3.7954    1.2664   52.2696 H         1 <0>         0.0600 
     40 H20         2.6076    2.0179   53.3373 H         1 <0>         0.0600 
     41 H21         1.8248    4.8704   52.9404 H         1 <0>         0.0300 
     42 H22         1.3433    5.5431   51.3958 H         1 <0>         0.0300 
     43 H23         2.4925    9.5605   55.1054 H         1 <0>         0.0600 
     44 H24         2.9859    6.8857   54.3485 H         1 <0>         0.0600 
     45 H25         4.0884    6.1355   52.5332 H         1 <0>         0.0600 
     46 H26         2.6775    9.2246   52.6701 H         1 <0>         0.3100 
     47 H27         4.1673    8.5676   52.9147 H         1 <0>         0.3100 
     48 H28         2.4568    7.7152   50.8775 H         1 <0>         0.4180 
@<TRIPOS>BOND
     1    1   11 1    
     2    1   21 1    
     3    1   22 1    
     4    1   23 1    
     5    2   15 1    
     6    2   24 1    
     7    2   25 1    
     8    2   26 1    
     9    3   15 1    
    10    3   27 1    
    11    3   28 1    
    12    3   29 1    
    13    4   16 1    
    14    4   30 1    
    15    4   31 1    
    16    4   32 1    
    17    5    6 ar   
    18    5   11 ar   
    19    5   33 1    
    20    6   12 ar   
    21    6   34 1    
    22    7    8 1    
    23    7    9 1    
    24    7   35 1    
    25    7   36 1    
    26    8   13 1    
    27    8   37 1    
    28    8   38 1    
    29    9   14 1    
    30    9   39 1    
    31    9   40 1    
    32   10   17 1    
    33   10   20 1    
    34   10   41 1    
    35   10   42 1    
    36   11   13 ar   
    37   12   14 ar   
    38   12   20 1    
    39   13   14 ar   
    40   15   18 1    
    41   15   43 1    
    42   16   17 1    
    43   16   18 1    
    44   16   44 1    
    45   17   19 1    
    46   17   45 1    
    47   18   46 1    
    48   18   47 1    
    49   19   48 1    
@<TRIPOS>SUBSTRUCTURE
     1 <0>         1 GROUP             0       ****    0 ROOT    
@<TRIPOS>MOLECULE
JRZ_A1203_3NY8
48   49    1
SMALL
USER_CHARGES


@<TRIPOS>ATOM
      1 C1          0.2232    1.2492   47.8452 C.3       1 <0>        -0.0650 
      2 C2          4.9438    8.8965   55.7487 C.3       1 <0>        -0.1800 
      3 C3          4.4767   10.9411   54.3402 C.3       1 <0>        -0.1800 
      4 C4          1.3491    7.8948   54.0635 C.3       1 <0>        -0.1800 
      5 C5          1.2543    3.3611   48.8401 C.ar      1 <0>        -0.1150 
      6 C6          1.8574    4.0754   49.8953 C.ar      1 <0>        -0.1150 
      7 C7          1.2166   -0.1117   52.0889 C.3       1 <0>        -0.1200 
      8 C8          0.9467   -0.0581   50.5705 C.3       1 <0>        -0.0050 
      9 C9          1.9757    1.1877   52.4559 C.3       1 <0>        -0.0050 
     10 C10         2.0503    5.3973   52.4976 C.3       1 <0>         0.1400 
     11 C11         0.8548    2.0150   48.9932 C.ar      1 <0>        -0.1150 
     12 C12         2.0963    3.4510   51.1395 C.ar      1 <0>         0.0850 
     13 C13         1.1681    1.3864   50.2143 C.ar      1 <0>        -0.1150 
     14 C14         1.7676    2.0833   51.2605 C.ar      1 <0>        -0.1150 
     15 C15         3.9407    9.5790   54.8032 C.3       1 <0>         0.2300 
     16 C16         2.8278    7.5180   53.8141 C.3       1 <0>         0.2300 
     17 C17         3.0899    6.5306   52.6345 C.3       1 <0>         0.2050 
     18 N1          3.6546    8.7336   53.6213 N.4       1 <0>        -0.2000 
     19 O1          3.2428    7.2226   51.4004 O.3       1 <0>        -0.6830 
     20 O2          2.6513    4.1373   52.1922 O.3       1 <0>        -0.2850 
     21 H1          0.0552    1.9020   46.9873 H         1 <0>         0.0600 
     22 H2          0.8791    0.4360   47.5295 H         1 <0>         0.0600 
     23 H3         -0.7392    0.8229   48.1401 H         1 <0>         0.0600 
     24 H4          5.2111    9.5557   56.5750 H         1 <0>         0.0600 
     25 H5          5.8647    8.6327   55.2271 H         1 <0>         0.0600 
     26 H6          4.5383    7.9880   56.1918 H         1 <0>         0.0600 
     27 H7          4.6965   11.5860   55.1910 H         1 <0>         0.0600 
     28 H8          5.3930   10.8362   53.7594 H         1 <0>         0.0600 
     29 H9          3.7494   11.4644   53.7205 H         1 <0>         0.0600 
     30 H10         0.7312    7.0234   54.2696 H         1 <0>         0.0600 
     31 H11         1.2366    8.5338   54.9371 H         1 <0>         0.0600 
     32 H12         0.8997    8.4217   53.2267 H         1 <0>         0.0600 
     33 H13         1.0770    3.8700   47.9134 H         1 <0>         0.1150 
     34 H14         2.1317    5.1089   49.7395 H         1 <0>         0.1150 
     35 H15         1.7266   -1.0211   52.4077 H         1 <0>         0.0600 
     36 H16         0.2551   -0.0938   52.6023 H         1 <0>         0.0600 
     37 H17        -0.0523   -0.3712   50.2926 H         1 <0>         0.0600 
     38 H18         1.6542   -0.6865   50.0295 H         1 <0>         0.0600 
     39 H19         3.0426    1.0017   52.5744 H         1 <0>         0.0600 
     40 H20         1.5902    1.6226   53.3737 H         1 <0>         0.0600 
     41 H21         1.5861    5.2226   53.4599 H         1 <0>         0.0300 
     42 H22         1.2279    5.6895   51.8426 H         1 <0>         0.0300 
     43 H23         3.0160    9.7696   55.3439 H         1 <0>         0.0600 
     44 H24         3.1685    7.0016   54.7099 H         1 <0>         0.0600 
     45 H25         4.0549    6.0619   52.8343 H         1 <0>         0.0600 
     46 H26         3.1730    9.2868   52.9216 H         1 <0>         0.3100 
     47 H27         4.5478    8.4406   53.2258 H         1 <0>         0.3100 
     48 H28         2.4698    7.7569   51.2289 H         1 <0>         0.4180 
@<TRIPOS>BOND
     1    1   11 1    
     2    1   21 1    
     3    1   22 1    
     4    1   23 1    
     5    2   15 1    
     6    2   24 1    
     7    2   25 1    
     8    2   26 1    
     9    3   15 1    
    10    3   27 1    
    11    3   28 1    
    12    3   29 1    
    13    4   16 1    
    14    4   30 1    
    15    4   31 1    
    16    4   32 1    
    17    5    6 ar   
    18    5   11 ar   
    19    5   33 1    
    20    6   12 ar   
    21    6   34 1    
    22    7    8 1    
    23    7    9 1    
    24    7   35 1    
    25    7   36 1    
    26    8   13 1    
    27    8   37 1    
    28    8   38 1    
    29    9   14 1    
    30    9   39 1    
    31    9   40 1    
    32   10   17 1    
    33   10   20 1    
    34   10   41 1    
    35   10   42 1    
    36   11   13 ar   
    37   12   14 ar   
    38   12   20 1    
    39   13   14 ar   
    40   15   18 1    
    41   15   43 1    
    42   16   17 1    
    43   16   18 1    
    44   16   44 1    
    45   17   19 1    
    46   17   45 1    
    47   18   46 1    
    48   18   47 1    
    49   19   48 1    
@<TRIPOS>SUBSTRUCTURE
     1 <0>         1 GROUP             0       ****    0 ROOT    
