@<TRIPOS>MOLECULE
*****
43   44    1
SMALL
USER_CHARGES


@<TRIPOS>ATOM
      1 O1         25.0148    2.3268   -0.5481 O.3       1 <0>        -0.6830 
      2 C1         25.9260    3.1292    0.1739 C.3       1 <0>         0.2050 
      3 N1         31.4138    7.4190    4.6852 N.1       1 <0>        -0.4300 
      4 C2         26.4110    4.3418   -0.6359 C.3       1 <0>         0.1700 
      5 N2         27.0150    3.9282   -1.9124 N.4       1 <0>        -0.2000 
      6 C3         27.9900    4.8483   -2.5500 C.3       1 <0>         0.2900 
      7 C4         29.3312    4.8211   -1.7892 C.3       1 <0>        -0.1800 
      8 C5         27.4406    6.2903   -2.6173 C.3       1 <0>        -0.1800 
      9 C6         25.3070    3.5782    1.5025 C.3       1 <0>         0.1400 
     10 O2         26.3168    4.3266    2.1623 O.3       1 <0>        -0.3000 
     11 C7         26.0403    4.9205    3.3653 C.ar      1 <0>         0.0456 
     12 C8         24.7983    4.8193    4.0319 C.ar      1 <0>        -0.2222 
     13 C9         24.5765    5.5267    5.2309 C.ar      1 <0>        -0.0888 
     14 C10        25.5890    6.3264    5.7798 C.ar      1 <0>        -0.3541 
     15 C11        26.8348    6.3813    5.1398 C.ar      1 <0>         0.2860 
     16 C12        27.0935    5.6743    3.9270 C.ar      1 <0>         0.1233 
     17 N3         28.0058    7.0380    5.4519 N.pl3     1 <0>        -0.4786 
     18 C13        28.9660    6.7268    4.5136 C.ar      1 <0>         0.1207 
     19 C14        28.4575    5.9125    3.5428 C.ar      1 <0>        -0.2567 
     20 C15        30.3056    7.1222    4.6033 C.1       1 <0>         0.3950 
     21 C16        28.2202    4.3446   -3.9844 C.3       1 <0>        -0.1800 
     22 H1         24.3040    2.8633   -0.9013 H         1 <0>         0.4180 
     23 H2         26.7782    2.4867    0.3704 H         1 <0>         0.0600 
     24 H3         27.1468    4.8929   -0.0521 H         1 <0>         0.0600 
     25 H4         25.5897    5.0309   -0.8360 H         1 <0>         0.0600 
     26 H5         26.2182    3.8912   -2.5487 H         1 <0>         0.3100 
     27 H6         27.4263    2.9971   -1.8391 H         1 <0>         0.3100 
     28 H7         30.0832    5.4230   -2.3012 H         1 <0>         0.0600 
     29 H8         29.7248    3.8066   -1.7122 H         1 <0>         0.0600 
     30 H9         29.2437    5.2187   -0.7781 H         1 <0>         0.0600 
     31 H10        26.4750    6.3267   -3.1238 H         1 <0>         0.0600 
     32 H11        27.3131    6.7308   -1.6290 H         1 <0>         0.0600 
     33 H12        28.1177    6.9445   -3.1681 H         1 <0>         0.0600 
     34 H13        24.4224    4.1917    1.3227 H         1 <0>         0.0300 
     35 H14        25.0140    2.7139    2.1014 H         1 <0>         0.0300 
     36 H15        23.9868    4.2341    3.6268 H         1 <0>         0.1489 
     37 H16        23.6154    5.4670    5.7210 H         1 <0>         0.1359 
     38 H17        25.4149    6.8841    6.6872 H         1 <0>         0.1796 
     39 H18        28.1368    7.6553    6.2425 H         1 <0>         0.3577 
     40 H19        28.9679    5.4968    2.6860 H         1 <0>         0.1377 
     41 H20        27.2862    4.3278   -4.5478 H         1 <0>         0.0600 
     42 H21        28.9185    4.9838   -4.5263 H         1 <0>         0.0600 
     43 H22        28.6262    3.3322   -3.9953 H         1 <0>         0.0600 
@<TRIPOS>BOND
     1    1    2 1    
     2    1   22 1    
     3    2    4 1    
     4    2    9 1    
     5    2   23 1    
     6    3   20 3    
     7    4    5 1    
     8    4   24 1    
     9    4   25 1    
    10    5    6 1    
    11    5   26 1    
    12    5   27 1    
    13    6   21 1    
    14    6    8 1    
    15    6    7 1    
    16    7   28 1    
    17    7   29 1    
    18    7   30 1    
    19    8   31 1    
    20    8   32 1    
    21    8   33 1    
    22    9   10 1    
    23    9   34 1    
    24    9   35 1    
    25   10   11 1    
    26   11   12 ar   
    27   11   16 ar   
    28   12   13 ar   
    29   12   36 1    
    30   13   14 ar   
    31   13   37 1    
    32   14   15 ar   
    33   14   38 1    
    34   15   16 ar   
    35   15   17 ar   
    36   16   19 ar   
    37   17   18 ar   
    38   17   39 1    
    39   18   19 ar   
    40   18   20 1    
    41   19   40 1    
    42   21   41 1    
    43   21   42 1    
    44   21   43 1    
@<TRIPOS>SUBSTRUCTURE
     1 <0>         1 GROUP             0       ****    0 ROOT    
@<TRIPOS>MOLECULE
*****
43   44    1
SMALL
USER_CHARGES


@<TRIPOS>ATOM
      1 O1         25.1027    4.1954   -0.1482 O.3       1 <0>        -0.6830 
      2 C1         26.4860    4.1825    0.1382 C.3       1 <0>         0.2050 
      3 N1         34.3452    6.2943    2.3848 N.1       1 <0>        -0.4300 
      4 C2         27.2698    5.0304   -0.8875 C.3       1 <0>         0.1700 
      5 N2         27.4150    4.3266   -2.1851 N.4       1 <0>        -0.2000 
      6 C3         28.3966    4.8512   -3.1672 C.3       1 <0>         0.2900 
      7 C4         28.3573    3.9266   -4.3980 C.3       1 <0>        -0.1800 
      8 C5         29.8298    4.8164   -2.5937 C.3       1 <0>        -0.1800 
      9 C6         26.6029    4.7446    1.5646 C.3       1 <0>         0.1400 
     10 O2         27.9596    4.7266    1.9829 O.3       1 <0>        -0.3000 
     11 C7         28.3084    5.5165    3.0518 C.ar      1 <0>         0.0456 
     12 C8         27.3702    5.9290    4.0299 C.ar      1 <0>        -0.2222 
     13 C9         27.7452    6.8164    5.0519 C.ar      1 <0>        -0.0888 
     14 C10        29.0585    7.3117    5.1007 C.ar      1 <0>        -0.3541 
     15 C11        30.0061    6.8540    4.1717 C.ar      1 <0>         0.2860 
     16 C12        29.6643    5.9266    3.1356 C.ar      1 <0>         0.1233 
     17 N3         31.3510    7.1266    4.0181 N.pl3     1 <0>        -0.4786 
     18 C13        31.8538    6.3638    2.9844 C.ar      1 <0>         0.1207 
     19 C14        30.8590    5.6463    2.3742 C.ar      1 <0>        -0.2567 
     20 C15        33.2194    6.3266    2.6519 C.1       1 <0>         0.3950 
     21 C16        28.0242    6.2846   -3.5953 C.3       1 <0>        -0.1800 
     22 H1         24.9191    3.9266   -1.0438 H         1 <0>         0.4180 
     23 H2         26.8420    3.1512    0.1280 H         1 <0>         0.0600 
     24 H3         28.2568    5.2300   -0.4755 H         1 <0>         0.0600 
     25 H4         26.7898    5.9992   -1.0324 H         1 <0>         0.0600 
     26 H5         26.4877    4.3266   -2.6206 H         1 <0>         0.3100 
     27 H6         27.6719    3.3598   -2.0068 H         1 <0>         0.3100 
     28 H7         29.1160    4.2150   -5.1248 H         1 <0>         0.0600 
     29 H8         27.3854    3.9510   -4.8932 H         1 <0>         0.0600 
     30 H9         28.5579    2.8863   -4.1406 H         1 <0>         0.0600 
     31 H10        29.9758    5.5269   -1.7813 H         1 <0>         0.0600 
     32 H11        30.0857    3.8239   -2.2197 H         1 <0>         0.0600 
     33 H12        30.5627    5.0723   -3.3600 H         1 <0>         0.0600 
     34 H13        26.2150    5.7646    1.5842 H         1 <0>         0.0300 
     35 H14        26.0045    4.1442    2.2518 H         1 <0>         0.0300 
     36 H15        26.3459    5.5892    4.0031 H         1 <0>         0.1489 
     37 H16        27.0149    7.1266    5.7856 H         1 <0>         0.1359 
     38 H17        29.3407    8.0299    5.8519 H         1 <0>         0.1796 
     39 H18        31.9121    7.7740    4.5593 H         1 <0>         0.3577 
     40 H19        30.9439    4.9728    1.5346 H         1 <0>         0.1377 
     41 H20        28.0857    6.9902   -2.7666 H         1 <0>         0.0600 
     42 H21        28.6967    6.6491   -4.3729 H         1 <0>         0.0600 
     43 H22        27.0096    6.3319   -3.9948 H         1 <0>         0.0600 
@<TRIPOS>BOND
     1    1    2 1    
     2    1   22 1    
     3    2    4 1    
     4    2    9 1    
     5    2   23 1    
     6    3   20 3    
     7    4    5 1    
     8    4   24 1    
     9    4   25 1    
    10    5    6 1    
    11    5   26 1    
    12    5   27 1    
    13    6   21 1    
    14    6    8 1    
    15    6    7 1    
    16    7   28 1    
    17    7   29 1    
    18    7   30 1    
    19    8   31 1    
    20    8   32 1    
    21    8   33 1    
    22    9   10 1    
    23    9   34 1    
    24    9   35 1    
    25   10   11 1    
    26   11   12 ar   
    27   11   16 ar   
    28   12   13 ar   
    29   12   36 1    
    30   13   14 ar   
    31   13   37 1    
    32   14   15 ar   
    33   14   38 1    
    34   15   16 ar   
    35   15   17 ar   
    36   16   19 ar   
    37   17   18 ar   
    38   17   39 1    
    39   18   19 ar   
    40   18   20 1    
    41   19   40 1    
    42   21   41 1    
    43   21   42 1    
    44   21   43 1    
@<TRIPOS>SUBSTRUCTURE
     1 <0>         1 GROUP             0       ****    0 ROOT    
