@<TRIPOS>MOLECULE
CQW_999_3CQW
30   33    1
SMALL
USER_CHARGES


@<TRIPOS>ATOM
      1 C1          3.2087    1.2677   15.7783 C.ar      1 <0>        -0.0360 
      2 C2          8.3733    1.9377   21.1343 C.ar      1 <0>         0.2750 
      3 C3          4.8137    5.3816   15.7163 C.ar      1 <0>         0.7091 
      4 C4          8.4317    4.5162   18.6217 C.3       1 <0>         0.0081 
      5 C5          8.3868    4.0492   17.1440 C.3       1 <0>         0.0900 
      6 C6          7.2983    1.8559   17.7259 C.3       1 <0>         0.2240 
      7 C7          4.5431    1.3318   16.0474 C.ar      1 <0>         0.0091 
      8 C8          8.3027    3.3095   19.4891 C.ar      1 <0>         0.1319 
      9 C9          7.8834    2.1042   19.0355 C.ar      1 <0>        -0.2330 
     10 C10         4.9043    2.7278   16.1637 C.ar      1 <0>        -0.2363 
     11 C11         3.7287    3.4648   15.8282 C.ar      1 <0>         0.7933 
     12 C12         6.0462    3.5374   16.4475 C.ar      1 <0>         0.6953 
     13 N1          2.7186    2.5515   15.6476 N.pl3     1 <0>        -0.5489 
     14 N2          8.0202    1.2168   20.0761 N.pl3     1 <0>        -0.2570 
     15 N3          8.5121    3.2168   20.8475 N.2       1 <0>        -0.5630 
     16 N4          3.6202    4.8078   15.6475 N.ar      1 <0>        -0.8345 
     17 N5          5.9715    4.8367   16.0746 N.ar      1 <0>        -0.7904 
     18 N6          7.3020    3.0718   16.8991 N.pl3     1 <0>        -0.6200 
     19 Cl1         5.6198    0.0168   16.1134 Cl        1 <0>        -0.1800 
     20 H1          2.5809    0.4045   15.6192 H         1 <0>         0.1902 
     21 H2          8.4615    1.5433   22.1339 H         1 <0>         0.0780 
     22 H3          4.8409    6.4346   15.4879 H         1 <0>         0.0283 
     23 H4          9.3611    5.0478   18.8276 H         1 <0>         0.0600 
     24 H5          7.6202    5.2135   18.8234 H         1 <0>         0.0600 
     25 H6          8.3690    4.9000   16.4638 H         1 <0>         0.0600 
     26 H7          9.3207    3.5325   16.9201 H         1 <0>         0.0600 
     27 H8          7.8296    1.0373   17.2475 H         1 <0>         0.0600 
     28 H9          6.2851    1.5393   17.9532 H         1 <0>         0.0600 
     29 H10         1.7672    2.7826   15.3751 H         1 <0>         0.4008 
     30 H11         7.6814    0.2451   20.1489 H         1 <0>         0.3060 
@<TRIPOS>BOND
     1    1    7 ar   
     2    1   13 ar   
     3    1   20 1    
     4    2   14 ar   
     5    2   15 ar   
     6    2   21 1    
     7    3   16 ar   
     8    3   17 ar   
     9    3   22 1    
    10    4    5 1    
    11    4    8 1    
    12    4   23 1    
    13    4   24 1    
    14    5   18 1    
    15    5   25 1    
    16    5   26 1    
    17    6    9 1    
    18    6   18 1    
    19    6   27 1    
    20    6   28 1    
    21    7   10 ar   
    22    7   19 1    
    23    8    9 ar   
    24    8   15 ar   
    25    9   14 ar   
    26   10   11 ar   
    27   10   12 ar   
    28   11   13 ar   
    29   11   16 ar   
    30   12   17 ar   
    31   12   18 1    
    32   13   29 1    
    33   14   30 1    
@<TRIPOS>SUBSTRUCTURE
     1 <0>         1 GROUP             0       ****    0 ROOT    
@<TRIPOS>MOLECULE
CQW_999_3CQW
30   33    1
SMALL
USER_CHARGES


@<TRIPOS>ATOM
      1 C1         11.5841   -4.0763   21.2457 C.ar      1 <0>        -0.0360 
      2 C2         10.8234    4.2878   18.8476 C.ar      1 <0>         0.2750 
      3 C3         11.5225    0.0154   23.0052 C.ar      1 <0>         0.7091 
      4 C4         10.1717    0.7771   18.4535 C.3       1 <0>         0.0081 
      5 C5         11.3459   -0.2377   18.4828 C.3       1 <0>         0.0900 
      6 C6         12.9886    1.4053   19.4099 C.3       1 <0>         0.2240 
      7 C7         11.9908   -3.0955   20.3793 C.ar      1 <0>         0.0091 
      8 C8         10.6829    2.1650   18.6570 C.ar      1 <0>         0.1319 
      9 C9         11.9442    2.4317   19.1112 C.ar      1 <0>        -0.2330 
     10 C10        11.8645   -1.8237   21.0549 C.ar      1 <0>        -0.2363 
     11 C11        11.4233   -2.1137   22.3783 C.ar      1 <0>         0.7933 
     12 C12        12.0650   -0.4394   20.7825 C.ar      1 <0>         0.6953 
     13 N1         11.2461   -3.4786   22.4475 N.pl3     1 <0>        -0.5489 
     14 N2         12.0113    3.8076   19.2475 N.pl3     1 <0>        -0.2570 
     15 N3          9.9679    3.3447   18.4556 N.2       1 <0>        -0.5630 
     16 N4         11.2282   -1.2235   23.3918 N.ar      1 <0>        -0.8345 
     17 N5         11.9246    0.4401   21.8075 N.ar      1 <0>        -0.7904 
     18 N6         12.3736    0.0674   19.5001 N.pl3     1 <0>        -0.6200 
     19 Cl1        12.6043   -3.2840   18.8018 Cl        1 <0>        -0.1800 
     20 H1         11.5333   -5.1477   21.1136 H         1 <0>         0.1902 
     21 H2         10.5809    5.3407   18.8498 H         1 <0>         0.0780 
     22 H3         11.4113    0.7800   23.7601 H         1 <0>         0.0283 
     23 H4          9.6209    0.6932   17.5170 H         1 <0>         0.0600 
     24 H5          9.4668    0.5334   19.2500 H         1 <0>         0.0600 
     25 H6         10.9354   -1.2394   18.5943 H         1 <0>         0.0600 
     26 H7         11.8492   -0.2214   17.5157 H         1 <0>         0.0600 
     27 H8         13.7204    1.3874   18.6018 H         1 <0>         0.0600 
     28 H9         13.5421    1.6638   20.3128 H         1 <0>         0.0600 
     29 H10        10.9641   -3.9823   23.2836 H         1 <0>         0.4008 
     30 H11        12.7863    4.3525   19.5965 H         1 <0>         0.3060 
@<TRIPOS>BOND
     1    1    7 ar   
     2    1   13 ar   
     3    1   20 1    
     4    2   14 ar   
     5    2   15 ar   
     6    2   21 1    
     7    3   16 ar   
     8    3   17 ar   
     9    3   22 1    
    10    4    5 1    
    11    4    8 1    
    12    4   23 1    
    13    4   24 1    
    14    5   18 1    
    15    5   25 1    
    16    5   26 1    
    17    6    9 1    
    18    6   18 1    
    19    6   27 1    
    20    6   28 1    
    21    7   10 ar   
    22    7   19 1    
    23    8    9 ar   
    24    8   15 ar   
    25    9   14 ar   
    26   10   11 ar   
    27   10   12 ar   
    28   11   13 ar   
    29   11   16 ar   
    30   12   17 ar   
    31   12   18 1    
    32   13   29 1    
    33   14   30 1    
@<TRIPOS>SUBSTRUCTURE
     1 <0>         1 GROUP             0       ****    0 ROOT    
