@<TRIPOS>MOLECULE
G93_1_3D0E
59   62    1
SMALL
USER_CHARGES


@<TRIPOS>ATOM
      1 C1         22.8045  -19.6994   11.8674 C.3       1 <0>        -0.1800 
      2 C2         25.2859  -15.2517    3.1463 C.3       1 <0>        -0.1800 
      3 C3         22.8090  -14.5898    3.5585 C.3       1 <0>        -0.1800 
      4 C4         23.0127  -20.7493    6.8694 C.ar      1 <0>         0.4730 
      5 C5         21.5918  -25.7619   11.1710 C.3       1 <0>        -0.1200 
      6 C6         22.5784  -24.7621   10.5414 C.3       1 <0>        -0.1200 
      7 C7         20.4894  -25.0350   11.9628 C.3       1 <0>         0.1700 
      8 C8         20.7325  -23.0351   10.5722 C.3       1 <0>         0.1700 
      9 C9         21.6945  -19.1163   10.9803 C.3       1 <0>         0.0025 
     10 C10        22.8118  -22.6336    9.1620 C.3       1 <0>         0.1400 
     11 C11        23.6358  -17.4687    5.4175 C.1       1 <0>        -0.0350 
     12 C12        23.7798  -16.6433    4.5360 C.1       1 <0>         0.0000 
     13 C13        22.5420  -20.4740    8.1667 C.ar      1 <0>        -0.1920 
     14 C14        23.3485  -18.4825    6.4017 C.ar      1 <0>         0.5200 
     15 C15        22.9594  -18.1129    7.7080 C.ar      1 <0>         0.0304 
     16 C16        22.5314  -19.1331    8.5860 C.ar      1 <0>         0.1306 
     17 C17        22.5067  -16.0889   10.5658 C.2       1 <0>         0.2721 
     18 C18        22.3265  -14.6990   10.3384 C.2       1 <0>         0.4721 
     19 C19        22.5391  -17.1686    9.5697 C.ar      1 <0>         0.3530 
     20 C20        21.8413  -23.6849    9.7212 C.3       1 <0>        -0.0600 
     21 C21        23.8453  -15.7260    3.3993 C.3       1 <0>         0.2650 
     22 N1         22.2183  -14.0514    9.1072 N.pl3     1 <0>        -0.9200 
     23 N2         23.4183  -19.7819    6.0266 N.ar      1 <0>        -0.6780 
     24 N3         22.9185  -16.8833    8.3232 N.2       1 <0>        -0.5630 
     25 N4         22.6181  -16.3027   11.8541 N.2       1 <0>        -0.2850 
     26 N5         22.2782  -14.0518   11.4704 N.2       1 <0>        -0.2850 
     27 N6         19.8183  -24.0517   11.0910 N.4       1 <0>        -0.2000 
     28 N7         22.2183  -18.4786    9.7765 N.pl3     1 <0>        -0.0735 
     29 O1         23.4181  -16.4226    2.2689 O.3       1 <0>        -0.6830 
     30 O2         22.4641  -15.0400   12.4487 O.3       1 <0>         0.0258 
     31 O3         22.0777  -21.4306    9.0170 O.3       1 <0>        -0.3000 
     32 H1         22.3794  -20.2167   12.7278 H         1 <0>         0.0600 
     33 H2         23.4147  -20.4161   11.3181 H         1 <0>         0.0600 
     34 H3         23.4648  -18.9204   12.2470 H         1 <0>         0.0600 
     35 H4         25.5761  -14.4839    3.8650 H         1 <0>         0.0600 
     36 H5         25.9991  -16.0738    3.2283 H         1 <0>         0.0600 
     37 H6         25.4180  -14.8514    2.1456 H         1 <0>         0.0600 
     38 H7         23.0186  -13.9122    4.3811 H         1 <0>         0.0600 
     39 H8         22.7143  -13.9760    2.6689 H         1 <0>         0.0600 
     40 H9         21.8184  -14.9959    3.7449 H         1 <0>         0.0600 
     41 H10        23.0397  -21.7529    6.4731 H         1 <0>         0.0120 
     42 H11        21.1336  -26.3642   10.3846 H         1 <0>         0.0600 
     43 H12        22.1255  -26.4570   11.8209 H         1 <0>         0.0600 
     44 H13        23.2830  -25.2859    9.8981 H         1 <0>         0.0600 
     45 H14        23.1637  -24.2929   11.3324 H         1 <0>         0.0600 
     46 H15        19.7524  -25.7493   12.3316 H         1 <0>         0.0600 
     47 H16        20.9073  -24.5271   12.8333 H         1 <0>         0.0600 
     48 H17        21.1491  -22.4592   11.4005 H         1 <0>         0.0600 
     49 H18        20.1184  -22.3542    9.9805 H         1 <0>         0.0600 
     50 H19        21.0842  -18.4089   11.5373 H         1 <0>         0.0600 
     51 H20        21.0029  -19.9033   10.6803 H         1 <0>         0.0600 
     52 H21        23.2561  -22.9987    8.2373 H         1 <0>         0.0300 
     53 H22        23.6271  -22.4423    9.8608 H         1 <0>         0.0300 
     54 H23        21.3505  -24.1676    8.8732 H         1 <0>         0.0600 
     55 H24        22.4475  -14.5528    8.2580 H         1 <0>         0.3600 
     56 H25        22.2562  -13.0396    9.0680 H         1 <0>         0.3600 
     57 H26        19.4183  -24.5677   10.3077 H         1 <0>         0.3100 
     58 H27        19.0921  -23.5253   11.5876 H         1 <0>         0.3100 
     59 H28        24.1012  -17.0382    1.9389 H         1 <0>         0.4180 
@<TRIPOS>BOND
     1    1    9 1    
     2    1   32 1    
     3    1   33 1    
     4    1   34 1    
     5    2   21 1    
     6    2   35 1    
     7    2   36 1    
     8    2   37 1    
     9    3   21 1    
    10    3   38 1    
    11    3   39 1    
    12    3   40 1    
    13    4   13 ar   
    14    4   23 ar   
    15    4   41 1    
    16    5    6 1    
    17    5    7 1    
    18    5   42 1    
    19    5   43 1    
    20    6   20 1    
    21    6   44 1    
    22    6   45 1    
    23    7   27 1    
    24    7   46 1    
    25    7   47 1    
    26    8   20 1    
    27    8   27 1    
    28    8   48 1    
    29    8   49 1    
    30    9   28 1    
    31    9   50 1    
    32    9   51 1    
    33   10   20 1    
    34   10   31 1    
    35   10   52 1    
    36   10   53 1    
    37   11   12 3    
    38   11   14 1    
    39   12   21 1    
    40   13   16 ar   
    41   13   31 1    
    42   14   15 ar   
    43   14   23 ar   
    44   15   16 ar   
    45   15   24 ar   
    46   16   28 ar   
    47   17   18 1    
    48   17   19 1    
    49   17   25 2    
    50   18   22 1    
    51   18   26 2    
    52   19   24 ar   
    53   19   28 ar   
    54   20   54 1    
    55   21   29 1    
    56   22   55 1    
    57   22   56 1    
    58   25   30 1    
    59   26   30 1    
    60   27   57 1    
    61   27   58 1    
    62   29   59 1    
@<TRIPOS>SUBSTRUCTURE
     1 <0>         1 GROUP             0       ****    0 ROOT    
@<TRIPOS>MOLECULE
G93_1_3D0E
59   62    1
SMALL
USER_CHARGES


@<TRIPOS>ATOM
      1 C1         20.6191  -19.6989   11.3797 C.3       1 <0>        -0.1800 
      2 C2         25.2741  -15.3134    3.1657 C.3       1 <0>        -0.1800 
      3 C3         22.8101  -14.6566    3.5717 C.3       1 <0>        -0.1800 
      4 C4         22.9827  -20.8572    6.9847 C.ar      1 <0>         0.4730 
      5 C5         21.7420  -25.9936   11.2608 C.3       1 <0>        -0.1200 
      6 C6         22.6350  -24.8612   10.7249 C.3       1 <0>        -0.1200 
      7 C7         20.5883  -25.4337   12.1102 C.3       1 <0>         0.1700 
      8 C8         20.6447  -23.3239   10.8287 C.3       1 <0>         0.1700 
      9 C9         22.0713  -19.2756   11.1453 C.3       1 <0>         0.0025 
     10 C10        22.7163  -22.6633    9.4287 C.3       1 <0>         0.1400 
     11 C11        23.5621  -17.5783    5.4444 C.1       1 <0>        -0.0350 
     12 C12        23.7376  -16.7505    4.5621 C.1       1 <0>         0.0000 
     13 C13        22.4727  -20.5737    8.2677 C.ar      1 <0>        -0.1920 
     14 C14        23.2748  -18.5853    6.4567 C.ar      1 <0>         0.5200 
     15 C15        22.8509  -18.2038    7.7543 C.ar      1 <0>         0.0304 
     16 C16        22.4806  -19.2221    8.6666 C.ar      1 <0>         0.1306 
     17 C17        22.4650  -16.1135   10.5841 C.2       1 <0>         0.2721 
     18 C18        22.3192  -14.7146   10.3392 C.2       1 <0>         0.4721 
     19 C19        22.4773  -17.2330    9.6205 C.ar      1 <0>         0.3530 
     20 C20        21.8140  -23.8136    9.9434 C.3       1 <0>        -0.0600 
     21 C21        23.8361  -15.8028    3.4321 C.3       1 <0>         0.2650 
     22 N1         22.2184  -14.0519    9.1108 N.pl3     1 <0>        -0.9200 
     23 N2         23.4183  -19.8976    6.1356 N.ar      1 <0>        -0.6780 
     24 N3         22.7511  -16.9620    8.3419 N.2       1 <0>        -0.5630 
     25 N4         22.5840  -16.2998   11.8749 N.2       1 <0>        -0.2850 
     26 N5         22.3037  -14.0532   11.4644 N.2       1 <0>        -0.2850 
     27 N6         19.8185  -24.4495   11.3252 N.4       1 <0>        -0.2000 
     28 N7         22.2823  -18.5658    9.8814 N.pl3     1 <0>        -0.0735 
     29 O1         23.4183  -16.4511    2.2689 O.3       1 <0>        -0.6830 
     30 O2         22.4689  -15.0290   12.4542 O.3       1 <0>         0.0258 
     31 O3         21.9262  -21.5315    9.0906 O.3       1 <0>        -0.3000 
     32 H1         20.5555  -20.3933   12.2171 H         1 <0>         0.0600 
     33 H2         19.9929  -18.8517   11.6274 H         1 <0>         0.0600 
     34 H3         20.1866  -20.1902   10.5080 H         1 <0>         0.0600 
     35 H4         25.5684  -14.5397    3.8688 H         1 <0>         0.0600 
     36 H5         25.9962  -16.1294    3.2294 H         1 <0>         0.0600 
     37 H6         25.3980  -14.8749    2.1780 H         1 <0>         0.0600 
     38 H7         23.0184  -13.9739    4.3903 H         1 <0>         0.0600 
     39 H8         22.7385  -14.0521    2.6695 H         1 <0>         0.0600 
     40 H9         21.8133  -15.0515    3.7476 H         1 <0>         0.0600 
     41 H10        23.0231  -21.8700    6.6122 H         1 <0>         0.0120 
     42 H11        21.3347  -26.5641   10.4245 H         1 <0>         0.0600 
     43 H12        22.3364  -26.6913   11.8522 H         1 <0>         0.0600 
     44 H13        23.4181  -25.2756   10.0959 H         1 <0>         0.0600 
     45 H14        23.1396  -24.3824   11.5626 H         1 <0>         0.0600 
     46 H15        19.9230  -26.2378   12.4270 H         1 <0>         0.0600 
     47 H16        20.9719  -24.9584   13.0145 H         1 <0>         0.0600 
     48 H17        21.0190  -22.7522   11.6789 H         1 <0>         0.0600 
     49 H18        19.9898  -22.6606   10.2631 H         1 <0>         0.0600 
     50 H19        22.6950  -20.1687   11.1247 H         1 <0>         0.0600 
     51 H20        22.4500  -18.7176   11.9946 H         1 <0>         0.0600 
     52 H21        23.3122  -23.0150    8.5867 H         1 <0>         0.0300 
     53 H22        23.4179  -22.3559   10.2050 H         1 <0>         0.0300 
     54 H23        21.3751  -24.2989    9.0695 H         1 <0>         0.0600 
     55 H24        22.3905  -14.5558    8.2503 H         1 <0>         0.3600 
     56 H25        22.2567  -13.0403    9.0699 H         1 <0>         0.3600 
     57 H26        19.4185  -24.9232   10.5100 H         1 <0>         0.3100 
     58 H27        19.0709  -24.0257   11.8696 H         1 <0>         0.3100 
     59 H28        24.1018  -17.0621    1.9281 H         1 <0>         0.4180 
@<TRIPOS>BOND
     1    1    9 1    
     2    1   32 1    
     3    1   33 1    
     4    1   34 1    
     5    2   21 1    
     6    2   35 1    
     7    2   36 1    
     8    2   37 1    
     9    3   21 1    
    10    3   38 1    
    11    3   39 1    
    12    3   40 1    
    13    4   13 ar   
    14    4   23 ar   
    15    4   41 1    
    16    5    6 1    
    17    5    7 1    
    18    5   42 1    
    19    5   43 1    
    20    6   20 1    
    21    6   44 1    
    22    6   45 1    
    23    7   27 1    
    24    7   46 1    
    25    7   47 1    
    26    8   20 1    
    27    8   27 1    
    28    8   48 1    
    29    8   49 1    
    30    9   28 1    
    31    9   50 1    
    32    9   51 1    
    33   10   20 1    
    34   10   31 1    
    35   10   52 1    
    36   10   53 1    
    37   11   12 3    
    38   11   14 1    
    39   12   21 1    
    40   13   16 ar   
    41   13   31 1    
    42   14   15 ar   
    43   14   23 ar   
    44   15   16 ar   
    45   15   24 ar   
    46   16   28 ar   
    47   17   18 1    
    48   17   19 1    
    49   17   25 2    
    50   18   22 1    
    51   18   26 2    
    52   19   24 ar   
    53   19   28 ar   
    54   20   54 1    
    55   21   29 1    
    56   22   55 1    
    57   22   56 1    
    58   25   30 1    
    59   26   30 1    
    60   27   57 1    
    61   27   58 1    
    62   29   59 1    
@<TRIPOS>SUBSTRUCTURE
     1 <0>         1 GROUP             0       ****    0 ROOT    
