@<TRIPOS>MOLECULE
ZST_600_2HV5
40   43    1
SMALL
USER_CHARGES


@<TRIPOS>ATOM
      1 C1         18.8100   -9.9547   13.4478 C.ar      1 <0>        -0.1150 
      2 C2         18.5249  -11.3256   13.3247 C.ar      1 <0>        -0.1150 
      3 C3         18.1878   -9.1937   14.4553 C.ar      1 <0>        -0.1150 
      4 C4         17.6115  -11.9340   14.2046 C.ar      1 <0>        -0.1150 
      5 C5         17.4246  -16.3089   21.4182 C.ar      1 <0>        -0.3011 
      6 C6         16.1225  -15.8863   21.0926 C.ar      1 <0>        -0.1407 
      7 C7         18.3468  -14.4316   20.1657 C.ar      1 <0>        -0.4461 
      8 C8         16.8690   -7.5529   16.6384 C.3       1 <0>        -0.1721 
      9 C9         14.7364  -11.5861   18.2480 C.3       1 <0>         0.1950 
     10 C10        18.5455  -15.5850   20.9572 C.ar      1 <0>         0.0201 
     11 C11        17.2719   -9.7932   15.3554 C.ar      1 <0>         0.0631 
     12 C12        16.9777  -11.1724   15.2113 C.ar      1 <0>        -0.1150 
     13 C13        15.9429  -14.7322   20.3092 C.ar      1 <0>        -0.1027 
     14 C14        17.0524  -13.9766   19.8330 C.ar      1 <0>         0.6314 
     15 C15        16.6065   -9.0403   16.4493 C.ar      1 <0>         0.1657 
     16 C16        15.4009  -12.7271   18.9721 C.2       1 <0>         0.2008 
     17 C17        15.9737  -11.8095   16.1290 C.ar      1 <0>         0.6150 
     18 C18        15.6511   -6.7618   17.1216 C.2       1 <0>         0.7000 
     19 C19        19.9584  -16.0417   21.2984 C.3       1 <0>         0.7150 
     20 N1         16.7339  -12.8411   19.0926 N.2       1 <0>        -0.5991 
     21 N2         15.8466   -9.6818   17.2857 N.2       1 <0>        -0.2833 
     22 N3         15.5824  -11.0368   17.1745 N.pl3     1 <0>        -0.1934 
     23 O1         15.6121   -6.4331   18.3283 O.co2     1 <0>        -0.8000 
     24 O2         15.5682  -12.9556   15.9289 O.2       1 <0>        -0.5000 
     25 O3         14.8115   -6.4336   16.2508 O.co2     1 <0>        -0.8000 
     26 F1         19.9744  -16.7379   22.4346 F         1 <0>        -0.2000 
     27 F2         20.4171  -16.8126   20.3134 F         1 <0>        -0.2000 
     28 F3         20.7726  -14.9941   21.4388 F         1 <0>        -0.2000 
     29 S1         14.4450  -13.9949   19.7573 S.3       1 <0>        -0.0839 
     30 H1         19.5124   -9.4888   12.7730 H         1 <0>         0.1150 
     31 H2         19.0002  -11.9122   12.5532 H         1 <0>         0.1150 
     32 H3         18.4544   -8.1516   14.5216 H         1 <0>         0.1150 
     33 H4         17.3914  -12.9866   14.0927 H         1 <0>         0.1150 
     34 H5         17.5635  -17.1990   22.0153 H         1 <0>         0.1749 
     35 H6         15.2647  -16.4439   21.4409 H         1 <0>         0.2050 
     36 H7         19.2002  -13.8736   19.8107 H         1 <0>         0.2114 
     37 H8         17.7263   -7.3918   17.2919 H         1 <0>         0.0600 
     38 H9         17.1115   -7.0814   15.6895 H         1 <0>         0.0600 
     39 H10        14.4901  -10.8168   18.9800 H         1 <0>         0.0600 
     40 H11        13.7878  -11.9371   17.8469 H         1 <0>         0.0600 
@<TRIPOS>BOND
     1    1    2 ar   
     2    1    3 ar   
     3    1   30 1    
     4    2    4 ar   
     5    2   31 1    
     6    3   11 ar   
     7    3   32 1    
     8    4   12 ar   
     9    4   33 1    
    10    5    6 ar   
    11    5   10 ar   
    12    5   34 1    
    13    6   13 ar   
    14    6   35 1    
    15    7   10 ar   
    16    7   14 ar   
    17    7   36 1    
    18    8   15 1    
    19    8   18 1    
    20    8   37 1    
    21    8   38 1    
    22    9   16 1    
    23    9   22 1    
    24    9   39 1    
    25    9   40 1    
    26   10   19 1    
    27   11   12 ar   
    28   11   15 ar   
    29   12   17 ar   
    30   13   14 ar   
    31   13   29 1    
    32   14   20 1    
    33   15   21 ar   
    34   16   20 2    
    35   16   29 1    
    36   17   22 ar   
    37   17   24 2    
    38   18   23 1    
    39   18   25 2    
    40   19   26 1    
    41   19   27 1    
    42   19   28 1    
    43   21   22 ar   
@<TRIPOS>SUBSTRUCTURE
     1 <0>         1 GROUP             0       ****    0 ROOT    
@<TRIPOS>MOLECULE
ZST_600_2HV5
40   43    1
SMALL
USER_CHARGES


@<TRIPOS>ATOM
      1 C1         18.5307   -9.3672   13.8445 C.ar      1 <0>        -0.1150 
      2 C2         18.4131  -10.7215   13.4842 C.ar      1 <0>        -0.1150 
      3 C3         17.8585   -8.8784   14.9806 C.ar      1 <0>        -0.1150 
      4 C4         17.6116  -11.5850   14.2523 C.ar      1 <0>        -0.1150 
      5 C5         17.5699  -16.1470   21.9237 C.ar      1 <0>        -0.3011 
      6 C6         16.2360  -15.7857   21.6575 C.ar      1 <0>        -0.1407 
      7 C7         18.3414  -14.5459   20.2511 C.ar      1 <0>        -0.4461 
      8 C8         16.4269   -7.8453   17.4656 C.3       1 <0>        -0.1721 
      9 C9         14.5100  -12.1837   18.1156 C.3       1 <0>         0.1950 
     10 C10        18.6312  -15.5286   21.2245 C.ar      1 <0>         0.0201 
     11 C11        17.0430   -9.7355   15.7570 C.ar      1 <0>         0.0631 
     12 C12        16.9098  -11.0922   15.3771 C.ar      1 <0>        -0.1150 
     13 C13        15.9673  -14.7992   20.6923 C.ar      1 <0>        -0.1027 
     14 C14        17.0147  -14.1500   19.9799 C.ar      1 <0>         0.6314 
     15 C15        16.3153   -9.2669   16.9620 C.ar      1 <0>         0.1657 
     16 C16        15.2708  -13.0996   19.0375 C.2       1 <0>         0.2008 
     17 C17        15.9951  -11.9908   16.1636 C.ar      1 <0>         0.6150 
     18 C18        15.6923   -6.8153   16.6012 C.2       1 <0>         0.7000 
     19 C19        20.0783  -15.9106   21.5122 C.3       1 <0>         0.7150 
     20 N1         16.6111  -13.1730   19.0801 N.2       1 <0>        -0.5991 
     21 N2         15.5593  -10.0895   17.6153 N.2       1 <0>        -0.2833 
     22 N3         15.4047  -11.4115   17.2440 N.pl3     1 <0>        -0.1934 
     23 O1         15.6422   -5.6493   17.0480 O.co2     1 <0>        -0.8000 
     24 O2         15.8102  -13.1603   15.8281 O.2       1 <0>        -0.5000 
     25 O3         15.2118   -7.1581   15.4970 O.co2     1 <0>        -0.8000 
     26 F1         20.4875  -16.7961   20.6043 F         1 <0>        -0.2000 
     27 F2         20.8612  -14.8341   21.4491 F         1 <0>        -0.2000 
     28 F3         20.2033  -16.4461   22.7258 F         1 <0>        -0.2000 
     29 S1         14.4119  -14.1756   20.1468 S.3       1 <0>        -0.0839 
     30 H1         19.1497   -8.7040   13.2564 H         1 <0>         0.1150 
     31 H2         18.9370  -11.1003   12.6200 H         1 <0>         0.1150 
     32 H3         17.9734   -7.8385   15.2416 H         1 <0>         0.1150 
     33 H4         17.5179  -12.6192   13.9577 H         1 <0>         0.1150 
     34 H5         17.7764  -16.9041   22.6670 H         1 <0>         0.1749 
     35 H6         15.4221  -16.2643   22.1847 H         1 <0>         0.2050 
     36 H7         19.1472  -14.0735   19.7098 H         1 <0>         0.2114 
     37 H8         16.0062   -7.7741   18.4704 H         1 <0>         0.0600 
     38 H9         17.4734   -7.5593   17.5642 H         1 <0>         0.0600 
     39 H10        13.8935  -11.5191   18.7208 H         1 <0>         0.0600 
     40 H11        13.8187  -12.7810   17.5175 H         1 <0>         0.0600 
@<TRIPOS>BOND
     1    1    2 ar   
     2    1    3 ar   
     3    1   30 1    
     4    2    4 ar   
     5    2   31 1    
     6    3   11 ar   
     7    3   32 1    
     8    4   12 ar   
     9    4   33 1    
    10    5    6 ar   
    11    5   10 ar   
    12    5   34 1    
    13    6   13 ar   
    14    6   35 1    
    15    7   10 ar   
    16    7   14 ar   
    17    7   36 1    
    18    8   15 1    
    19    8   18 1    
    20    8   37 1    
    21    8   38 1    
    22    9   16 1    
    23    9   22 1    
    24    9   39 1    
    25    9   40 1    
    26   10   19 1    
    27   11   12 ar   
    28   11   15 ar   
    29   12   17 ar   
    30   13   14 ar   
    31   13   29 1    
    32   14   20 1    
    33   15   21 ar   
    34   16   20 2    
    35   16   29 1    
    36   17   22 ar   
    37   17   24 2    
    38   18   23 1    
    39   18   25 2    
    40   19   26 1    
    41   19   27 1    
    42   19   28 1    
    43   21   22 ar   
@<TRIPOS>SUBSTRUCTURE
     1 <0>         1 GROUP             0       ****    0 ROOT    
@<TRIPOS>MOLECULE
ZST_600_2HV5
40   43    1
SMALL
USER_CHARGES


@<TRIPOS>ATOM
      1 C1         18.7926  -10.0848   13.4479 C.ar      1 <0>        -0.1150 
      2 C2         18.5227  -11.4609   13.3512 C.ar      1 <0>        -0.1150 
      3 C3         18.1598   -9.3094   14.4376 C.ar      1 <0>        -0.1150 
      4 C4         17.6114  -12.0586   14.2399 C.ar      1 <0>        -0.1150 
      5 C5         17.3919  -16.2679   21.5659 C.ar      1 <0>        -0.3011 
      6 C6         16.0896  -15.8678   21.2164 C.ar      1 <0>        -0.1407 
      7 C7         18.3110  -14.4326   20.2477 C.ar      1 <0>        -0.4461 
      8 C8         16.8315   -7.6357   16.5725 C.3       1 <0>        -0.1721 
      9 C9         14.6917  -11.6540   18.2488 C.3       1 <0>         0.1950 
     10 C10        18.5096  -15.5546   21.0846 C.ar      1 <0>         0.0201 
     11 C11        17.2419   -9.8985   15.3424 C.ar      1 <0>         0.0631 
     12 C12        16.9614  -11.2820   15.2253 C.ar      1 <0>        -0.1150 
     13 C13        15.9090  -14.7415   20.3951 C.ar      1 <0>        -0.1027 
     14 C14        17.0151  -13.9941   19.9011 C.ar      1 <0>         0.6314 
     15 C15        16.5635   -9.1267   16.4161 C.ar      1 <0>         0.1657 
     16 C16        15.3617  -12.7721   19.0060 C.2       1 <0>         0.2008 
     17 C17        15.9548  -11.9089   16.1475 C.ar      1 <0>         0.6150 
     18 C18        15.6414   -6.8316   17.1006 C.2       1 <0>         0.7000 
     19 C19        19.9100  -15.9965   21.4842 C.3       1 <0>         0.7150 
     20 N1         16.6939  -12.8795   19.1323 N.2       1 <0>        -0.5991 
     21 N2         15.7983   -9.7556   17.2580 N.2       1 <0>        -0.2833 
     22 N3         15.5435  -11.1172   17.1725 N.pl3     1 <0>        -0.1934 
     23 O1         14.8118   -6.4329   16.2512 O.co2     1 <0>        -0.8000 
     24 O2         15.5632  -13.0638   15.9685 O.2       1 <0>        -0.5000 
     25 O3         15.6116   -6.5691   18.3235 O.co2     1 <0>        -0.8000 
     26 F1         19.9911  -16.0761   22.8120 F         1 <0>        -0.2000 
     27 F2         20.1643  -17.1948   20.9619 F         1 <0>        -0.2000 
     28 F3         20.8349  -15.1381   21.0562 F         1 <0>        -0.2000 
     29 S1         14.4118  -14.0299   19.8127 S.3       1 <0>        -0.0839 
     30 H1         19.4931   -9.6238   12.7664 H         1 <0>         0.1150 
     31 H2         19.0095  -12.0565   12.5928 H         1 <0>         0.1150 
     32 H3         18.4189   -8.2639   14.4872 H         1 <0>         0.1150 
     33 H4         17.4018  -13.1147   14.1496 H         1 <0>         0.1150 
     34 H5         17.5369  -17.1283   22.2035 H         1 <0>         0.1749 
     35 H6         15.2316  -16.4160   21.5784 H         1 <0>         0.2050 
     36 H7         19.1574  -13.8773   19.8726 H         1 <0>         0.2114 
     37 H8         17.7207   -7.4662   17.1805 H         1 <0>         0.0600 
     38 H9         17.0274   -7.1808   15.6034 H         1 <0>         0.0600 
     39 H10        14.4185  -10.8727   18.9590 H         1 <0>         0.0600 
     40 H11        13.7541  -12.0289   17.8422 H         1 <0>         0.0600 
@<TRIPOS>BOND
     1    1    2 ar   
     2    1    3 ar   
     3    1   30 1    
     4    2    4 ar   
     5    2   31 1    
     6    3   11 ar   
     7    3   32 1    
     8    4   12 ar   
     9    4   33 1    
    10    5    6 ar   
    11    5   10 ar   
    12    5   34 1    
    13    6   13 ar   
    14    6   35 1    
    15    7   10 ar   
    16    7   14 ar   
    17    7   36 1    
    18    8   15 1    
    19    8   18 1    
    20    8   37 1    
    21    8   38 1    
    22    9   16 1    
    23    9   22 1    
    24    9   39 1    
    25    9   40 1    
    26   10   19 1    
    27   11   12 ar   
    28   11   15 ar   
    29   12   17 ar   
    30   13   14 ar   
    31   13   29 1    
    32   14   20 1    
    33   15   21 ar   
    34   16   20 2    
    35   16   29 1    
    36   17   22 ar   
    37   17   24 2    
    38   18   23 1    
    39   18   25 2    
    40   19   26 1    
    41   19   27 1    
    42   19   28 1    
    43   21   22 ar   
@<TRIPOS>SUBSTRUCTURE
     1 <0>         1 GROUP             0       ****    0 ROOT    
@<TRIPOS>MOLECULE
ZST_600_2HV5
40   43    1
SMALL
USER_CHARGES


@<TRIPOS>ATOM
      1 C1         18.8113   -9.9071   13.3799 C.ar      1 <0>        -0.1150 
      2 C2         18.5072  -11.2735   13.2513 C.ar      1 <0>        -0.1150 
      3 C3         18.2348   -9.1494   14.4160 C.ar      1 <0>        -0.1150 
      4 C4         17.6116  -11.8779   14.1510 C.ar      1 <0>        -0.1150 
      5 C5         17.3765  -16.2983   21.4464 C.ar      1 <0>        -0.3011 
      6 C6         16.0887  -15.8750   21.0688 C.ar      1 <0>        -0.1407 
      7 C7         18.3488  -14.4314   20.2179 C.ar      1 <0>        -0.4461 
      8 C8         17.0679   -7.5225   16.6604 C.3       1 <0>        -0.1721 
      9 C9         14.8113  -11.5247   18.2475 C.3       1 <0>         0.1950 
     10 C10        18.5153  -15.5773   21.0270 C.ar      1 <0>         0.0201 
     11 C11        17.3373   -9.7468   15.3353 C.ar      1 <0>         0.0631 
     12 C12        17.0153  -11.1177   15.1817 C.ar      1 <0>        -0.1150 
     13 C13        15.9407  -14.7221   20.2772 C.ar      1 <0>        -0.1027 
     14 C14        17.0680  -13.9711   19.8386 C.ar      1 <0>         0.6314 
     15 C15        16.7238   -8.9944   16.4599 C.ar      1 <0>         0.1657 
     16 C16        15.4496  -12.6987   18.9450 C.2       1 <0>         0.2008 
     17 C17        16.0209  -11.7484   16.1135 C.ar      1 <0>         0.6150 
     18 C18        15.9966   -6.6948   17.3778 C.2       1 <0>         0.7000 
     19 C19        19.9086  -16.0373   21.4383 C.3       1 <0>         0.7150 
     20 N1         16.7783  -12.8327   19.0892 N.2       1 <0>        -0.5991 
     21 N2         15.9584   -9.6282   17.2977 N.2       1 <0>        -0.2833 
     22 N3         15.6589  -10.9789   17.1730 N.pl3     1 <0>        -0.1934 
     23 O1         16.0118   -6.6692   18.6296 O.co2     1 <0>        -0.8000 
     24 O2         15.5931  -12.8857   15.9092 O.2       1 <0>        -0.5000 
     25 O3         15.2121   -6.0433   16.6479 O.co2     1 <0>        -0.8000 
     26 F1         19.8830  -16.5556   22.6664 F         1 <0>        -0.2000 
     27 F2         20.3328  -16.9678   20.5855 F         1 <0>        -0.2000 
     28 F3         20.7748  -15.0228   21.4321 F         1 <0>        -0.2000 
     29 S1         14.4650  -13.9770   19.6756 S.3       1 <0>        -0.0839 
     30 H1         19.4981   -9.4399   12.6890 H         1 <0>         0.1150 
     31 H2         18.9538  -11.8558   12.4584 H         1 <0>         0.1150 
     32 H3         18.5204   -8.1118   14.4906 H         1 <0>         0.1150 
     33 H4         17.3719  -12.9254   14.0334 H         1 <0>         0.1150 
     34 H5         17.4907  -17.1835   22.0562 H         1 <0>         0.1749 
     35 H6         15.2165  -16.4282   21.3867 H         1 <0>         0.2050 
     36 H7         19.2143  -13.8777   19.8871 H         1 <0>         0.2114 
     37 H8         18.0254   -7.4220   17.1705 H         1 <0>         0.0600 
     38 H9         17.1779   -7.0301   15.6962 H         1 <0>         0.0600 
     39 H10        14.6046  -10.7622   18.9987 H         1 <0>         0.0600 
     40 H11        13.8476  -11.8342   17.8479 H         1 <0>         0.0600 
@<TRIPOS>BOND
     1    1    2 ar   
     2    1    3 ar   
     3    1   30 1    
     4    2    4 ar   
     5    2   31 1    
     6    3   11 ar   
     7    3   32 1    
     8    4   12 ar   
     9    4   33 1    
    10    5    6 ar   
    11    5   10 ar   
    12    5   34 1    
    13    6   13 ar   
    14    6   35 1    
    15    7   10 ar   
    16    7   14 ar   
    17    7   36 1    
    18    8   15 1    
    19    8   18 1    
    20    8   37 1    
    21    8   38 1    
    22    9   16 1    
    23    9   22 1    
    24    9   39 1    
    25    9   40 1    
    26   10   19 1    
    27   11   12 ar   
    28   11   15 ar   
    29   12   17 ar   
    30   13   14 ar   
    31   13   29 1    
    32   14   20 1    
    33   15   21 ar   
    34   16   20 2    
    35   16   29 1    
    36   17   22 ar   
    37   17   24 2    
    38   18   23 1    
    39   18   25 2    
    40   19   26 1    
    41   19   27 1    
    42   19   28 1    
    43   21   22 ar   
@<TRIPOS>SUBSTRUCTURE
     1 <0>         1 GROUP             0       ****    0 ROOT    
