@<TRIPOS>MOLECULE
*****
34   35    1
SMALL
USER_CHARGES


@<TRIPOS>ATOM
      1 C1         72.5590    9.8779   29.0555 C.3       1 <0>         0.1775 
      2 N1         72.9156   11.2946   29.1940 N.4       1 <0>         0.2475 
      3 O1         72.7077    8.6324   31.1477 O.co2     1 <0>        -0.7225 
      4 S1         78.0342    6.1335   29.3006 S.o2      1 <0>         0.9819 
      5 C2         72.0350    9.3882   30.4158 C.2       1 <0>         0.4450 
      6 N2         76.9724    7.5154   29.2559 N.pl3     1 <0>        -0.5856 
      7 O2         70.9156    9.8324   30.7338 O.co2     1 <0>        -0.7225 
      8 S2         77.9411    4.6324   25.2550 S.3       1 <0>         0.0328 
      9 C3         73.6713    9.0324   28.4181 C.ar      1 <0>        -0.1150 
     10 O3         79.3214    6.6631   29.7764 O.2       1 <0>        -0.4680 
     11 C4         73.5498    8.6955   27.0533 C.ar      1 <0>        -0.1150 
     12 O4         77.3156    5.1089   30.0714 O.2       1 <0>        -0.4680 
     13 C5         74.5718    7.9844   26.4029 C.ar      1 <0>        -0.1150 
     14 O5         75.0774    4.6322   26.7338 O.co2     1 <0>        -0.8000 
     15 C6         75.7156    7.5795   27.1138 C.ar      1 <0>        -0.1150 
     16 O6         76.0808    3.3052   28.1525 O.co2     1 <0>        -0.8000 
     17 C7         75.8336    7.8324   28.4951 C.ar      1 <0>         0.1750 
     18 C8         78.2491    5.5870   27.6276 C.2       1 <0>         0.0548 
     19 C9         79.3569    6.0761   26.8722 C.2       1 <0>        -0.0738 
     20 C10        79.3280    5.6481   25.5697 C.2       1 <0>        -0.3255 
     21 C11        77.4001    4.7866   26.9069 C.2       1 <0>        -0.1787 
     22 C12        76.1157    4.1718   27.2559 C.2       1 <0>         0.7150 
     23 C13        74.8255    8.6033   29.1198 C.ar      1 <0>        -0.1150 
     24 H1         71.7156    9.8543   28.3672 H         1 <0>         0.0600 
     25 H2         73.7047   11.3702   29.8191 H         1 <0>         0.2100 
     26 H3         73.1369   11.6894   28.2913 H         1 <0>         0.2100 
     27 H4         72.1266   11.7795   29.5979 H         1 <0>         0.2100 
     28 H5         77.0040    8.0350   30.1206 H         1 <0>         0.3572 
     29 H6         72.6834    9.0039   26.4853 H         1 <0>         0.1150 
     30 H7         74.4911    7.7663   25.3481 H         1 <0>         0.1150 
     31 H8         76.5025    7.1082   26.5551 H         1 <0>         0.1150 
     32 H9         80.1055    6.7327   27.2912 H         1 <0>         0.1211 
     33 H10        80.0186    5.8891   24.7740 H         1 <0>         0.2618 
     34 H11        74.9623    8.8846   30.1540 H         1 <0>         0.1150 
@<TRIPOS>BOND
     1    1    9 1    
     2    1    5 1    
     3    1    2 1    
     4    1   24 1    
     5    2   25 1    
     6    2   26 1    
     7    2   27 1    
     8    3    5 1    
     9    4   18 1    
    10    4   12 2    
    11    4    6 1    
    12    4   10 2    
    13    5    7 2    
    14    6   17 1    
    15    6   28 1    
    16    8   20 1    
    17    8   21 1    
    18    9   11 ar   
    19    9   23 ar   
    20   11   13 ar   
    21   11   29 1    
    22   13   15 ar   
    23   13   30 1    
    24   14   22 2    
    25   15   17 ar   
    26   15   31 1    
    27   16   22 1    
    28   17   23 ar   
    29   18   21 2    
    30   18   19 1    
    31   19   20 2    
    32   19   32 1    
    33   20   33 1    
    34   21   22 1    
    35   23   34 1    
@<TRIPOS>SUBSTRUCTURE
     1 <0>         1 GROUP             0       ****    0 ROOT    
@<TRIPOS>MOLECULE
*****
34   35    1
SMALL
USER_CHARGES


@<TRIPOS>ATOM
      1 C1         72.5466   10.0757   28.5224 C.3       1 <0>         0.1775 
      2 N1         73.3140   11.3026   28.7350 N.4       1 <0>         0.2475 
      3 O1         71.2342    9.8326   30.4881 O.co2     1 <0>        -0.7225 
      4 S1         76.8409    5.4966   26.9436 S.o2      1 <0>         0.9819 
      5 C2         72.2630    9.4395   29.9029 C.2       1 <0>         0.4450 
      6 N2         76.3433    7.1102   27.2806 N.pl3     1 <0>        -0.5856 
      7 O2         73.0706    8.6324   30.4073 O.co2     1 <0>        -0.7225 
      8 S2         79.7097    4.7853   30.0979 S.3       1 <0>         0.0328 
      9 C3         73.2553    9.1509   27.5244 C.ar      1 <0>        -0.1150 
     10 O3         75.7159    4.6317   27.3386 O.2       1 <0>        -0.4680 
     11 C4         72.6653    8.8878   26.2683 C.ar      1 <0>        -0.1150 
     12 O4         77.3606    5.4978   25.5676 O.2       1 <0>        -0.4680 
     13 C5         73.3043    8.0438   25.3380 C.ar      1 <0>        -0.1150 
     14 O5         76.5908    7.0318   29.9296 O.co2     1 <0>        -0.8000 
     15 C6         74.5419    7.4512   25.6530 C.ar      1 <0>        -0.1150 
     16 O6         77.2406    5.7032   31.5336 O.co2     1 <0>        -0.8000 
     17 C7         75.1462    7.7156   26.8981 C.ar      1 <0>         0.1750 
     18 C8         78.1826    5.1836   28.0621 C.2       1 <0>         0.0548 
     19 C9         79.3386    4.5185   27.5532 C.2       1 <0>        -0.0738 
     20 C10        80.2577    4.2451   28.5321 C.2       1 <0>        -0.3255 
     21 C11        78.2343    5.4343   29.4154 C.2       1 <0>        -0.1787 
     22 C12        77.3189    6.1111   30.3578 C.2       1 <0>         0.7150 
     23 C13        74.5163    8.5837   27.8084 C.ar      1 <0>        -0.1150 
     24 H1         71.5992   10.3875   28.0842 H         1 <0>         0.0600 
     25 H2         74.2038   11.0518   29.1411 H         1 <0>         0.2100 
     26 H3         73.4419   11.7854   27.8577 H         1 <0>         0.2100 
     27 H4         72.8053   11.8888   29.3815 H         1 <0>         0.2100 
     28 H5         76.5591    7.3291   28.2599 H         1 <0>         0.3572 
     29 H6         71.7109    9.3239   26.0123 H         1 <0>         0.1150 
     30 H7         72.8380    7.8439   24.3846 H         1 <0>         0.1150 
     31 H8         75.0222    6.7995   24.9383 H         1 <0>         0.1150 
     32 H9         79.4484    4.2558   26.5108 H         1 <0>         0.1211 
     33 H10        81.2157    3.7560   28.4356 H         1 <0>         0.2618 
     34 H11        74.9912    8.7778   28.7587 H         1 <0>         0.1150 
@<TRIPOS>BOND
     1    1    9 1    
     2    1    5 1    
     3    1    2 1    
     4    1   24 1    
     5    2   25 1    
     6    2   26 1    
     7    2   27 1    
     8    3    5 1    
     9    4   18 1    
    10    4   12 2    
    11    4    6 1    
    12    4   10 2    
    13    5    7 2    
    14    6   17 1    
    15    6   28 1    
    16    8   20 1    
    17    8   21 1    
    18    9   11 ar   
    19    9   23 ar   
    20   11   13 ar   
    21   11   29 1    
    22   13   15 ar   
    23   13   30 1    
    24   14   22 2    
    25   15   17 ar   
    26   15   31 1    
    27   16   22 1    
    28   17   23 ar   
    29   18   21 2    
    30   18   19 1    
    31   19   20 2    
    32   19   32 1    
    33   20   33 1    
    34   21   22 1    
    35   23   34 1    
@<TRIPOS>SUBSTRUCTURE
     1 <0>         1 GROUP             0       ****    0 ROOT    
@<TRIPOS>MOLECULE
*****
34   35    1
SMALL
USER_CHARGES


@<TRIPOS>ATOM
      1 C1         72.5712   10.1811   28.2007 C.3       1 <0>         0.1775 
      2 N1         73.3155   11.4331   28.3355 N.4       1 <0>         0.2475 
      3 O1         73.9092    9.2340   29.9515 O.co2     1 <0>        -0.7225 
      4 S1         76.2042    6.0087   27.0153 S.o2      1 <0>         0.9819 
      5 C2         72.7505    9.3988   29.5116 C.2       1 <0>         0.4450 
      6 N2         75.5560    6.9481   25.7063 N.pl3     1 <0>        -0.5856 
      7 O2         71.7148    9.0375   30.1045 O.co2     1 <0>        -0.7225 
      8 S2         80.1142    4.3439   26.3176 S.3       1 <0>         0.0328 
      9 C3         73.0355    9.4417   26.9344 C.ar      1 <0>        -0.1150 
     10 O3         76.4255    6.9192   28.1487 O.2       1 <0>        -0.4680 
     11 C4         72.5148    9.8675   25.6966 C.ar      1 <0>        -0.1150 
     12 O4         75.3152    4.8392   27.1212 O.2       1 <0>        -0.4680 
     13 C5         73.0102    9.3508   24.4875 C.ar      1 <0>        -0.1150 
     14 O5         77.3556    4.0270   29.0826 O.co2     1 <0>        -0.8000 
     15 C6         74.0145    8.3655   24.4965 C.ar      1 <0>        -0.1150 
     16 O6         79.2912    3.0332   28.8018 O.co2     1 <0>        -0.8000 
     17 C7         74.5244    7.8939   25.7217 C.ar      1 <0>         0.1750 
     18 C8         77.7998    5.4610   26.4818 C.2       1 <0>         0.0548 
     19 C9         78.4090    6.0099   25.3121 C.2       1 <0>        -0.0738 
     20 C10        79.6703    5.5189   25.1081 C.2       1 <0>        -0.3255 
     21 C11        78.5962    4.5703   27.1587 C.2       1 <0>        -0.1787 
     22 C12        78.4047    3.8328   28.4265 C.2       1 <0>         0.7150 
     23 C13        74.0260    8.4313   26.9291 C.ar      1 <0>        -0.1150 
     24 H1         71.5225   10.4508   28.0883 H         1 <0>         0.0600 
     25 H2         74.2973   11.2071   28.3982 H         1 <0>         0.2100 
     26 H3         73.1295   12.0325   27.5406 H         1 <0>         0.2100 
     27 H4         73.0253   11.8888   29.1900 H         1 <0>         0.2100 
     28 H5         75.8946    6.7020   24.7898 H         1 <0>         0.3572 
     29 H6         71.7541   10.6323   25.6655 H         1 <0>         0.1150 
     30 H7         72.6275    9.7284   23.5512 H         1 <0>         0.1150 
     31 H8         74.3994    7.9926   23.5581 H         1 <0>         0.1150 
     32 H9         77.9427    6.7510   24.6843 H         1 <0>         0.1211 
     33 H10        80.3688    5.7960   24.3337 H         1 <0>         0.2618 
     34 H11        74.4345    8.0866   27.8593 H         1 <0>         0.1150 
@<TRIPOS>BOND
     1    1    9 1    
     2    1    5 1    
     3    1    2 1    
     4    1   24 1    
     5    2   25 1    
     6    2   26 1    
     7    2   27 1    
     8    3    5 1    
     9    4   18 1    
    10    4   12 2    
    11    4    6 1    
    12    4   10 2    
    13    5    7 2    
    14    6   17 1    
    15    6   28 1    
    16    8   20 1    
    17    8   21 1    
    18    9   11 ar   
    19    9   23 ar   
    20   11   13 ar   
    21   11   29 1    
    22   13   15 ar   
    23   13   30 1    
    24   14   22 2    
    25   15   17 ar   
    26   15   31 1    
    27   16   22 1    
    28   17   23 ar   
    29   18   21 2    
    30   18   19 1    
    31   19   20 2    
    32   19   32 1    
    33   20   33 1    
    34   21   22 1    
    35   23   34 1    
@<TRIPOS>SUBSTRUCTURE
     1 <0>         1 GROUP             0       ****    0 ROOT    
@<TRIPOS>MOLECULE
*****
34   35    1
SMALL
USER_CHARGES


@<TRIPOS>ATOM
      1 C1         72.2833   10.3527   29.0403 C.3       1 <0>         0.1775 
      2 N1         72.9156   11.5820   29.5070 N.4       1 <0>         0.2475 
      3 O1         73.0417    8.8317   30.7575 O.co2     1 <0>        -0.7225 
      4 S1         76.0487    5.9437   26.0024 S.o2      1 <0>         0.9819 
      5 C2         72.0691    9.4325   30.2534 C.2       1 <0>         0.4450 
      6 N2         75.7767    7.4322   26.8520 N.pl3     1 <0>        -0.5856 
      7 O2         70.9158    9.4328   30.7338 O.co2     1 <0>        -0.7225 
      8 S2         80.1839    4.9094   26.7613 S.3       1 <0>         0.0328 
      9 C3         72.9839    9.7156   27.8259 C.ar      1 <0>        -0.1150 
     10 O3         75.2834    4.9229   26.7337 O.2       1 <0>        -0.4680 
     11 C4         72.4488    9.9949   26.5497 C.ar      1 <0>        -0.1150 
     12 O4         75.7745    6.1886   24.5785 O.2       1 <0>        -0.4680 
     13 C5         73.0069    9.4464   25.3851 C.ar      1 <0>        -0.1150 
     14 O5         76.9158    4.4464   28.8194 O.co2     1 <0>        -0.8000 
     15 C6         74.1156    8.5931   25.4804 C.ar      1 <0>        -0.1150 
     16 O6         78.8547    3.4360   28.8955 O.co2     1 <0>        -0.8000 
     17 C7         74.6779    8.2935   26.7398 C.ar      1 <0>         0.1750 
     18 C8         77.7909    5.6524   26.1641 C.2       1 <0>         0.0548 
     19 C9         78.6374    6.2120   25.1591 C.2       1 <0>        -0.0738 
     20 C10        79.9561    5.9018   25.3495 C.2       1 <0>        -0.3255 
     21 C11        78.4694    4.9387   27.1254 C.2       1 <0>        -0.1787 
     22 C12        78.0551    4.2303   28.3530 C.2       1 <0>         0.7150 
     23 C13        74.1286    8.8819   27.9022 C.ar      1 <0>        -0.1150 
     24 H1         71.3104   10.6809   28.6914 H         1 <0>         0.0600 
     25 H2         73.8315   11.3491   29.8623 H         1 <0>         0.2100 
     26 H3         72.9845   12.2431   28.7467 H         1 <0>         0.2100 
     27 H4         72.3641   11.9726   30.2572 H         1 <0>         0.2100 
     28 H5         76.2203    7.4459   27.7583 H         1 <0>         0.3572 
     29 H6         71.5828   10.6324   26.4514 H         1 <0>         0.1150 
     30 H7         72.5810    9.6761   24.4194 H         1 <0>         0.1150 
     31 H8         74.5300    8.1978   24.5676 H         1 <0>         0.1150 
     32 H9         78.2627    6.8102   24.3405 H         1 <0>         0.1211 
     33 H10        80.7998    6.2018   24.7460 H         1 <0>         0.2618 
     34 H11        74.5917    8.6655   28.8522 H         1 <0>         0.1150 
@<TRIPOS>BOND
     1    1    9 1    
     2    1    5 1    
     3    1    2 1    
     4    1   24 1    
     5    2   25 1    
     6    2   26 1    
     7    2   27 1    
     8    3    5 1    
     9    4   18 1    
    10    4   12 2    
    11    4    6 1    
    12    4   10 2    
    13    5    7 2    
    14    6   17 1    
    15    6   28 1    
    16    8   20 1    
    17    8   21 1    
    18    9   11 ar   
    19    9   23 ar   
    20   11   13 ar   
    21   11   29 1    
    22   13   15 ar   
    23   13   30 1    
    24   14   22 2    
    25   15   17 ar   
    26   15   31 1    
    27   16   22 1    
    28   17   23 ar   
    29   18   21 2    
    30   18   19 1    
    31   19   20 2    
    32   19   32 1    
    33   20   33 1    
    34   21   22 1    
    35   23   34 1    
@<TRIPOS>SUBSTRUCTURE
     1 <0>         1 GROUP             0       ****    0 ROOT    
@<TRIPOS>MOLECULE
*****
34   35    1
SMALL
USER_CHARGES


@<TRIPOS>ATOM
      1 C1         72.3393   10.0774   28.9605 C.3       1 <0>         0.1775 
      2 N1         72.9156   11.3750   29.3124 N.4       1 <0>         0.2475 
      3 O1         72.9724    8.6542   30.8240 O.co2     1 <0>        -0.7225 
      4 S1         76.7284    5.6547   27.0387 S.o2      1 <0>         0.9819 
      5 C2         72.0647    9.3039   30.2642 C.2       1 <0>         0.4450 
      6 N2         76.2129    7.2227   27.5481 N.pl3     1 <0>        -0.5856 
      7 O2         70.9156    9.4324   30.7339 O.co2     1 <0>        -0.7225 
      8 S2         80.1219    5.1222   29.6635 S.3       1 <0>         0.0328 
      9 C3         73.1478    9.3011   27.9022 C.ar      1 <0>        -0.1150 
     10 O3         75.7157    4.7002   27.5190 O.2       1 <0>        -0.4680 
     11 C4         72.6423    9.2321   26.5838 C.ar      1 <0>        -0.1150 
     12 O4         77.0624    5.7628   25.6100 O.2       1 <0>        -0.4680 
     13 C5         73.3183    8.5045   25.5857 C.ar      1 <0>        -0.1150 
     14 O5         78.3415    6.6324   31.4075 O.co2     1 <0>        -0.8000 
     15 C6         74.5142    7.8290   25.8902 C.ar      1 <0>        -0.1150 
     16 O6         76.5480    6.6329   30.1625 O.co2     1 <0>        -0.8000 
     17 C7         75.0436    7.8973   27.1940 C.ar      1 <0>         0.1750 
     18 C8         78.2205    5.3553   27.9463 C.2       1 <0>         0.0548 
     19 C9         79.2811    4.6880   27.2624 C.2       1 <0>        -0.0738 
     20 C10        80.3766    4.4889   28.0594 C.2       1 <0>        -0.3255 
     21 C11        78.5054    5.6682   29.2586 C.2       1 <0>        -0.1787 
     22 C12        77.7532    6.3464   30.3434 C.2       1 <0>         0.7150 
     23 C13        74.3762    8.6512   28.1805 C.ar      1 <0>        -0.1150 
     24 H1         71.3759   10.3215   28.5137 H         1 <0>         0.0600 
     25 H2         73.8173   11.2149   29.7381 H         1 <0>         0.2100 
     26 H3         73.0078   11.9483   28.4859 H         1 <0>         0.2100 
     27 H4         72.3120   11.8281   29.9831 H         1 <0>         0.2100 
     28 H5         76.4202    7.3308   28.5436 H         1 <0>         0.3572 
     29 H6         71.7159    9.7261   26.3291 H         1 <0>         0.1150 
     30 H7         72.9112    8.4570   24.5865 H         1 <0>         0.1150 
     31 H8         75.0213    7.2712   25.1172 H         1 <0>         0.1150 
     32 H9         79.2048    4.3816   26.2293 H         1 <0>         0.1211 
     33 H10        81.3169    4.0211   27.8072 H         1 <0>         0.2618 
     34 H11        74.8131    8.7038   29.1672 H         1 <0>         0.1150 
@<TRIPOS>BOND
     1    1    9 1    
     2    1    5 1    
     3    1    2 1    
     4    1   24 1    
     5    2   25 1    
     6    2   26 1    
     7    2   27 1    
     8    3    5 1    
     9    4   18 1    
    10    4   12 2    
    11    4    6 1    
    12    4   10 2    
    13    5    7 2    
    14    6   17 1    
    15    6   28 1    
    16    8   20 1    
    17    8   21 1    
    18    9   11 ar   
    19    9   23 ar   
    20   11   13 ar   
    21   11   29 1    
    22   13   15 ar   
    23   13   30 1    
    24   14   22 2    
    25   15   17 ar   
    26   15   31 1    
    27   16   22 1    
    28   17   23 ar   
    29   18   21 2    
    30   18   19 1    
    31   19   20 2    
    32   19   32 1    
    33   20   33 1    
    34   21   22 1    
    35   23   34 1    
@<TRIPOS>SUBSTRUCTURE
     1 <0>         1 GROUP             0       ****    0 ROOT    
@<TRIPOS>MOLECULE
*****
34   35    1
SMALL
USER_CHARGES


@<TRIPOS>ATOM
      1 C1         72.2353   10.4245   29.0282 C.3       1 <0>         0.1775 
      2 N1         72.9156   11.6533   29.4261 N.4       1 <0>         0.2475 
      3 O1         70.9156    9.4333   30.7338 O.co2     1 <0>        -0.7225 
      4 S1         76.2367    5.9912   26.4994 S.o2      1 <0>         0.9819 
      5 C2         72.0707    9.5342   30.2768 C.2       1 <0>         0.4450 
      6 N2         75.8304    7.5513   27.1041 N.pl3     1 <0>        -0.5856 
      7 O2         73.0751    9.0315   30.8227 O.co2     1 <0>        -0.7225 
      8 S2         80.0208    5.4651   28.5227 S.3       1 <0>         0.0328 
      9 C3         72.9193    9.7253   27.8425 C.ar      1 <0>        -0.1150 
     10 O3         75.3158    5.0326   27.1326 O.2       1 <0>        -0.4680 
     11 C4         72.3487    9.8328   26.5541 C.ar      1 <0>        -0.1150 
     12 O4         76.3256    6.1071   25.0356 O.2       1 <0>        -0.4680 
     13 C5         72.9160    9.1701   25.4490 C.ar      1 <0>        -0.1150 
     14 O5         78.4908    6.7863   30.6276 O.co2     1 <0>        -0.8000 
     15 C6         74.0740    8.3892   25.6142 C.ar      1 <0>        -0.1150 
     16 O6         76.5925    7.0304   29.5826 O.co2     1 <0>        -0.8000 
     17 C7         74.6754    8.2987   26.8847 C.ar      1 <0>         0.1750 
     18 C8         77.8610    5.6977   27.1451 C.2       1 <0>         0.0548 
     19 C9         78.8053    5.0670   26.2805 C.2       1 <0>        -0.0738 
     20 C10        80.0194    4.8722   26.8831 C.2       1 <0>        -0.3255 
     21 C11        78.3528    5.9912   28.4005 C.2       1 <0>        -0.1787 
     22 C12        77.7805    6.6389   29.6090 C.2       1 <0>         0.7150 
     23 C13        74.1161    8.9860   27.9781 C.ar      1 <0>        -0.1150 
     24 H1         71.2532   10.7495   28.6940 H         1 <0>         0.0600 
     25 H2         73.8340   11.4042   29.7646 H         1 <0>         0.2100 
     26 H3         72.9821   12.2775   28.6346 H         1 <0>         0.2100 
     27 H4         72.3991   12.0923   30.1743 H         1 <0>         0.2100 
     28 H5         76.1408    7.6064   28.0816 H         1 <0>         0.3572 
     29 H6         71.4502   10.4138   26.4060 H         1 <0>         0.1150 
     30 H7         72.4547    9.2554   24.4762 H         1 <0>         0.1150 
     31 H8         74.5014    7.8826   24.7620 H         1 <0>         0.1150 
     32 H9         78.5655    4.7806   25.2670 H         1 <0>         0.1211 
     33 H10        80.9115    4.4258   26.4695 H         1 <0>         0.2618 
     34 H11        74.6196    8.9156   28.9307 H         1 <0>         0.1150 
@<TRIPOS>BOND
     1    1    9 1    
     2    1    5 1    
     3    1    2 1    
     4    1   24 1    
     5    2   25 1    
     6    2   26 1    
     7    2   27 1    
     8    3    5 1    
     9    4   18 1    
    10    4   12 2    
    11    4    6 1    
    12    4   10 2    
    13    5    7 2    
    14    6   17 1    
    15    6   28 1    
    16    8   20 1    
    17    8   21 1    
    18    9   11 ar   
    19    9   23 ar   
    20   11   13 ar   
    21   11   29 1    
    22   13   15 ar   
    23   13   30 1    
    24   14   22 2    
    25   15   17 ar   
    26   15   31 1    
    27   16   22 1    
    28   17   23 ar   
    29   18   21 2    
    30   18   19 1    
    31   19   20 2    
    32   19   32 1    
    33   20   33 1    
    34   21   22 1    
    35   23   34 1    
@<TRIPOS>SUBSTRUCTURE
     1 <0>         1 GROUP             0       ****    0 ROOT    
@<TRIPOS>MOLECULE
*****
34   35    1
SMALL
USER_CHARGES


@<TRIPOS>ATOM
      1 C1         72.2935   10.1693   28.9602 C.3       1 <0>         0.1775 
      2 N1         72.9157   11.4373   29.3304 N.4       1 <0>         0.2475 
      3 O1         70.9158    9.4324   30.7337 O.co2     1 <0>        -0.7225 
      4 S1         76.5160    5.7030   26.7389 S.o2      1 <0>         0.9819 
      5 C2         72.0637    9.3643   30.2519 C.2       1 <0>         0.4450 
      6 N2         76.0532    7.2783   27.2922 N.pl3     1 <0>        -0.5856 
      7 O2         73.0144    8.7627   30.7954 O.co2     1 <0>        -0.7225 
      8 S2         80.4459    5.5074   28.5226 S.3       1 <0>         0.0328 
      9 C3         73.0532    9.4177   27.8485 C.ar      1 <0>        -0.1150 
     10 O3         75.7157    4.7331   27.5032 O.2       1 <0>        -0.4680 
     11 C4         72.5156    9.4324   26.5420 C.ar      1 <0>        -0.1150 
     12 O4         76.4813    5.7282   25.2679 O.2       1 <0>        -0.4680 
     13 C5         73.1345    8.7310   25.4926 C.ar      1 <0>        -0.1150 
     14 O5         78.8788    6.6324   30.7340 O.co2     1 <0>        -0.8000 
     15 C6         74.3100    7.9996   25.7320 C.ar      1 <0>        -0.1150 
     16 O6         76.9144    6.6318   29.7824 O.co2     1 <0>        -0.8000 
     17 C7         74.8827    7.9905   27.0199 C.ar      1 <0>         0.1750 
     18 C8         78.2006    5.5487   27.2669 C.2       1 <0>         0.0548 
     19 C9         79.1555    5.0436   26.3332 C.2       1 <0>        -0.0738 
     20 C10        80.4147    4.9614   26.8653 C.2       1 <0>        -0.3255 
     21 C11        78.7288    5.8533   28.5022 C.2       1 <0>        -0.1787 
     22 C12        78.1427    6.3996   29.7509 C.2       1 <0>         0.7150 
     23 C13        74.2692    8.7203   28.0606 C.ar      1 <0>        -0.1150 
     24 H1         71.3185   10.4478   28.5609 H         1 <0>         0.0600 
     25 H2         73.8222   11.2379   29.7281 H         1 <0>         0.2100 
     26 H3         73.0026   12.0259   28.5143 H         1 <0>         0.2100 
     27 H4         72.3436   11.8898   30.0287 H         1 <0>         0.2100 
     28 H5         76.3679    7.3880   28.2589 H         1 <0>         0.3572 
     29 H6         71.6073    9.9781   26.3337 H         1 <0>         0.1150 
     30 H7         72.7009    8.7489   24.5030 H         1 <0>         0.1150 
     31 H8         74.7723    7.4713   24.9132 H         1 <0>         0.1150 
     32 H9         78.8909    4.7624   25.3239 H         1 <0>         0.1211 
     33 H10        81.3246    4.6254   26.3917 H         1 <0>         0.2618 
     34 H11        74.7366    8.7174   29.0341 H         1 <0>         0.1150 
@<TRIPOS>BOND
     1    1    9 1    
     2    1    5 1    
     3    1    2 1    
     4    1   24 1    
     5    2   25 1    
     6    2   26 1    
     7    2   27 1    
     8    3    5 1    
     9    4   18 1    
    10    4   12 2    
    11    4    6 1    
    12    4   10 2    
    13    5    7 2    
    14    6   17 1    
    15    6   28 1    
    16    8   20 1    
    17    8   21 1    
    18    9   11 ar   
    19    9   23 ar   
    20   11   13 ar   
    21   11   29 1    
    22   13   15 ar   
    23   13   30 1    
    24   14   22 2    
    25   15   17 ar   
    26   15   31 1    
    27   16   22 1    
    28   17   23 ar   
    29   18   21 2    
    30   18   19 1    
    31   19   20 2    
    32   19   32 1    
    33   20   33 1    
    34   21   22 1    
    35   23   34 1    
@<TRIPOS>SUBSTRUCTURE
     1 <0>         1 GROUP             0       ****    0 ROOT    
