@<TRIPOS>MOLECULE
TES_A1000_2AM9
51   54    1
SMALL
USER_CHARGES


@<TRIPOS>ATOM
      1 C1         28.6549   -0.1674    6.1175 C.3       1 <0>        -0.1800 
      2 C2         26.4491    4.0616    6.9182 C.3       1 <0>        -0.1800 
      3 C3         26.4551   -1.0137    4.2824 C.3       1 <0>        -0.1200 
      4 C4         27.6233   -1.8469    3.7192 C.3       1 <0>        -0.1200 
      5 C5         24.7566    1.6364    4.5147 C.3       1 <0>        -0.1200 
      6 C6         26.0622    6.6918    5.2115 C.3       1 <0>        -0.1200 
      7 C7         28.4571    2.7539    5.1188 C.3       1 <0>        -0.1200 
      8 C8         24.0222    2.7422    5.2748 C.3       1 <0>        -0.1200 
      9 C9         26.8247    5.4224    4.8043 C.3       1 <0>        -0.1200 
     10 C10        29.1665    1.5960    4.3853 C.3       1 <0>        -0.1200 
     11 C11        24.0015    5.2107    4.8968 C.2       1 <0>        -0.1150 
     12 C12        24.5592    6.6277    4.8816 C.3       1 <0>         0.2050 
     13 C13        26.2181    1.5298    4.9806 C.3       1 <0>        -0.0600 
     14 C14        26.9767    0.4191    4.2307 C.3       1 <0>        -0.0600 
     15 C15        26.9511    2.8810    4.7358 C.3       1 <0>        -0.0600 
     16 C16        28.8287   -0.8842    3.6733 C.3       1 <0>         0.2050 
     17 C17        24.7145    4.0910    5.1472 C.2       1 <0>         0.0000 
     18 C18        28.4508    0.2620    4.6373 C.3       1 <0>         0.0000 
     19 C19        26.2338    4.1073    5.3963 C.3       1 <0>         0.0000 
     20 O1         24.2880    7.2574    3.6498 O.3       1 <0>        -0.6830 
     21 O2         30.0346   -1.5445    3.9728 O.3       1 <0>        -0.6830 
     22 H1         28.2224   -1.1389    6.3405 H         1 <0>         0.0600 
     23 H2         29.7164   -0.2525    6.3530 H         1 <0>         0.0600 
     24 H3         28.2244    0.5330    6.8301 H         1 <0>         0.0600 
     25 H4         26.1917    3.0991    7.3589 H         1 <0>         0.0600 
     26 H5         27.4770    4.2953    7.1994 H         1 <0>         0.0600 
     27 H6         25.8218    4.8039    7.4013 H         1 <0>         0.0600 
     28 H7         25.5363   -1.1363    3.7178 H         1 <0>         0.0600 
     29 H8         26.2281   -1.3077    5.3078 H         1 <0>         0.0600 
     30 H9         27.8106   -2.7071    4.3619 H         1 <0>         0.0600 
     31 H10        27.4074   -2.2296    2.7213 H         1 <0>         0.0600 
     32 H11        24.2381    0.6912    4.6777 H         1 <0>         0.0600 
     33 H12        24.7144    1.8335    3.4423 H         1 <0>         0.0600 
     34 H13        26.1931    6.8439    6.2833 H         1 <0>         0.0600 
     35 H14        26.5142    7.5631    4.7373 H         1 <0>         0.0600 
     36 H15        28.5671    2.6060    6.1906 H         1 <0>         0.0600 
     37 H16        28.9967    3.6761    4.9176 H         1 <0>         0.0600 
     38 H17        22.9915    2.8083    4.9249 H         1 <0>         0.0600 
     39 H18        23.9725    2.4826    6.3328 H         1 <0>         0.0600 
     40 H19        26.8235    5.3659    3.7145 H         1 <0>         0.0600 
     41 H20        27.8673    5.5461    5.0934 H         1 <0>         0.0600 
     42 H21        29.1908    1.8058    3.3182 H         1 <0>         0.0600 
     43 H22        30.2099    1.5322    4.6964 H         1 <0>         0.0600 
     44 H23        22.9328    5.1315    4.7595 H         1 <0>         0.1150 
     45 H24        24.0129    7.2093    5.6266 H         1 <0>         0.0600 
     46 H25        26.2169    1.2894    6.0434 H         1 <0>         0.0600 
     47 H26        26.9499    0.7088    3.1770 H         1 <0>         0.0600 
     48 H27        26.9216    3.0504    3.6578 H         1 <0>         0.0600 
     49 H28        28.9195   -0.4902    2.6588 H         1 <0>         0.0600 
     50 H29        23.4636    6.9234    3.3319 H         1 <0>         0.4180 
     51 H30        30.7534   -0.9156    3.9367 H         1 <0>         0.4180 
@<TRIPOS>BOND
     1    1   18 1    
     2    1   22 1    
     3    1   23 1    
     4    1   24 1    
     5    2   19 1    
     6    2   25 1    
     7    2   26 1    
     8    2   27 1    
     9    3    4 1    
    10    3   14 1    
    11    3   28 1    
    12    3   29 1    
    13    4   16 1    
    14    4   30 1    
    15    4   31 1    
    16    5    8 1    
    17    5   13 1    
    18    5   32 1    
    19    5   33 1    
    20    6    9 1    
    21    6   12 1    
    22    6   34 1    
    23    6   35 1    
    24    7   10 1    
    25    7   15 1    
    26    7   36 1    
    27    7   37 1    
    28    8   17 1    
    29    8   38 1    
    30    8   39 1    
    31    9   19 1    
    32    9   40 1    
    33    9   41 1    
    34   10   18 1    
    35   10   42 1    
    36   10   43 1    
    37   11   12 1    
    38   11   17 2    
    39   11   44 1    
    40   12   20 1    
    41   12   45 1    
    42   13   14 1    
    43   13   15 1    
    44   13   46 1    
    45   14   18 1    
    46   14   47 1    
    47   15   19 1    
    48   15   48 1    
    49   16   18 1    
    50   16   21 1    
    51   16   49 1    
    52   17   19 1    
    53   20   50 1    
    54   21   51 1    
@<TRIPOS>SUBSTRUCTURE
     1 <0>         1 GROUP             0       ****    0 ROOT    
