@<TRIPOS>MOLECULE
RMA_601_1S3B
32   33    1
SMALL
USER_CHARGES


@<TRIPOS>ATOM
      1 C1         54.8941  154.0242   24.6389 C.3       1 <0>         0.0900 
      2 C2         54.1977  150.2058   23.2149 C.2       1 <0>        -0.2300 
      3 C3         51.1954  154.3065   28.8109 C.ar      1 <0>        -0.1150 
      4 C4         51.2132  153.0686   28.1272 C.ar      1 <0>        -0.1150 
      5 C5         51.5958  155.4889   28.1614 C.ar      1 <0>        -0.1150 
      6 C6         51.5953  152.9943   26.7745 C.ar      1 <0>        -0.1150 
      7 C7         52.4078  156.5298   25.9404 C.3       1 <0>        -0.0050 
      8 C8         52.6785  155.8736   24.5781 C.3       1 <0>        -0.1200 
      9 C9         53.4260  152.6202   23.2106 C.3       1 <0>         0.1500 
     10 C10        54.4659  151.5171   23.1208 C.2       1 <0>        -0.1150 
     11 C11        51.9952  155.3950   26.8200 C.ar      1 <0>        -0.1150 
     12 C12        51.9916  154.1829   26.1416 C.ar      1 <0>        -0.1150 
     13 C13        52.4245  154.3333   24.7144 C.3       1 <0>         0.3250 
     14 N1         53.5679  153.4153   24.4535 N.4       1 <0>        -0.1000 
     15 H1         55.1946  154.5855   23.7605 H         1 <0>         0.0600 
     16 H2         54.8053  154.7371   25.4398 H         1 <0>         0.0600 
     17 H3         55.6576  153.2915   24.8983 H         1 <0>         0.0600 
     18 H4         53.1919  149.8429   23.3656 H         1 <0>         0.1150 
     19 H5         54.9856  149.4699   23.1445 H         1 <0>         0.1150 
     20 H6         50.8839  154.3411   29.8448 H         1 <0>         0.1150 
     21 H7         50.9040  152.1693   28.6394 H         1 <0>         0.1150 
     22 H8         51.5872  156.4385   28.6761 H         1 <0>         0.1150 
     23 H9         51.5787  152.0491   26.2506 H         1 <0>         0.1150 
     24 H10        53.2896  157.0200   26.3502 H         1 <0>         0.0600 
     25 H11        51.6076  157.2595   25.8495 H         1 <0>         0.0600 
     26 H12        53.6665  156.1715   24.2390 H         1 <0>         0.0600 
     27 H13        51.9901  156.2879   23.8427 H         1 <0>         0.0600 
     28 H14        53.4916  153.2600   22.3315 H         1 <0>         0.0600 
     29 H15        52.4361  152.1658   23.2059 H         1 <0>         0.0600 
     30 H16        55.4892  151.8277   22.9703 H         1 <0>         0.1150 
     31 H17        51.5883  154.0547   24.0850 H         1 <0>         0.0600 
     32 H18        53.4908  152.7376   25.1989 H         1 <0>         0.2900 
@<TRIPOS>BOND
     1    1   14 1    
     2    1   15 1    
     3    1   16 1    
     4    1   17 1    
     5    2   10 2    
     6    2   18 1    
     7    2   19 1    
     8    3    4 ar   
     9    3    5 ar   
    10    3   20 1    
    11    4    6 ar   
    12    4   21 1    
    13    5   11 ar   
    14    5   22 1    
    15    6   12 ar   
    16    6   23 1    
    17    7    8 1    
    18    7   11 1    
    19    7   24 1    
    20    7   25 1    
    21    8   13 1    
    22    8   26 1    
    23    8   27 1    
    24    9   10 1    
    25    9   14 1    
    26    9   28 1    
    27    9   29 1    
    28   10   30 1    
    29   11   12 ar   
    30   12   13 1    
    31   13   14 1    
    32   13   31 1    
    33   14   32 1    
@<TRIPOS>SUBSTRUCTURE
     1 <0>         1 GROUP             0       ****    0 ROOT    
@<TRIPOS>MOLECULE
RMA_601_1S3B
32   33    1
SMALL
USER_CHARGES


@<TRIPOS>ATOM
      1 C1         54.8961  153.9148   24.2396 C.3       1 <0>         0.0900 
      2 C2         54.9581  150.6892   22.5855 C.2       1 <0>        -0.2300 
      3 C3         51.1952  154.3286   28.8927 C.ar      1 <0>        -0.1150 
      4 C4         51.1952  153.0782   28.2307 C.ar      1 <0>        -0.1150 
      5 C5         51.5954  155.4955   28.2168 C.ar      1 <0>        -0.1150 
      6 C6         51.5954  152.9677   26.8889 C.ar      1 <0>        -0.1150 
      7 C7         52.4931  156.4619   25.9931 C.3       1 <0>        -0.0050 
      8 C8         52.7318  155.7722   24.6397 C.3       1 <0>        -0.1200 
      9 C9         53.2596  152.1211   23.7995 C.3       1 <0>         0.1500 
     10 C10        54.3476  151.0649   23.7203 C.2       1 <0>        -0.1150 
     11 C11        51.9952  155.3664   26.8785 C.ar      1 <0>        -0.1150 
     12 C12        51.9951  154.1375   26.2306 C.ar      1 <0>        -0.1150 
     13 C13        52.4736  154.2353   24.8158 C.3       1 <0>         0.3250 
     14 N1         53.6225  153.2956   24.6384 N.4       1 <0>        -0.1000 
     15 H1         54.7951  154.3442   23.2421 H         1 <0>         0.0600 
     16 H2         55.1950  154.6903   24.9364 H         1 <0>         0.0600 
     17 H3         55.7043  153.1874   24.2398 H         1 <0>         0.0600 
     18 H4         54.7007  151.1314   21.6335 H         1 <0>         0.1150 
     19 H5         55.7242  149.9277   22.5964 H         1 <0>         0.1150 
     20 H6         50.8779  154.3873   29.9236 H         1 <0>         0.1150 
     21 H7         50.8536  152.1886   28.7357 H         1 <0>         0.1150 
     22 H8         51.6023  156.4546   28.7134 H         1 <0>         0.1150 
     23 H9         51.5767  152.0085   26.3925 H         1 <0>         0.1150 
     24 H10        53.4110  156.8777   26.4044 H         1 <0>         0.0600 
     25 H11        51.7630  157.2604   25.9025 H         1 <0>         0.0600 
     26 H12        53.6916  156.0845   24.2398 H         1 <0>         0.0600 
     27 H13        51.9952  156.1599   23.9366 H         1 <0>         0.0600 
     28 H14        52.9820  152.4501   22.7963 H         1 <0>         0.0600 
     29 H15        52.3951  151.6316   24.2386 H         1 <0>         0.0600 
     30 H16        54.6335  150.5925   24.6482 H         1 <0>         0.1150 
     31 H17        51.6404  153.9464   24.1748 H         1 <0>         0.0600 
     32 H18        53.7945  152.9360   25.5677 H         1 <0>         0.2900 
@<TRIPOS>BOND
     1    1   14 1    
     2    1   15 1    
     3    1   16 1    
     4    1   17 1    
     5    2   10 2    
     6    2   18 1    
     7    2   19 1    
     8    3    4 ar   
     9    3    5 ar   
    10    3   20 1    
    11    4    6 ar   
    12    4   21 1    
    13    5   11 ar   
    14    5   22 1    
    15    6   12 ar   
    16    6   23 1    
    17    7    8 1    
    18    7   11 1    
    19    7   24 1    
    20    7   25 1    
    21    8   13 1    
    22    8   26 1    
    23    8   27 1    
    24    9   10 1    
    25    9   14 1    
    26    9   28 1    
    27    9   29 1    
    28   10   30 1    
    29   11   12 ar   
    30   12   13 1    
    31   13   14 1    
    32   13   31 1    
    33   14   32 1    
@<TRIPOS>SUBSTRUCTURE
     1 <0>         1 GROUP             0       ****    0 ROOT    
@<TRIPOS>MOLECULE
RMA_601_1S3B
32   33    1
SMALL
USER_CHARGES


@<TRIPOS>ATOM
      1 C1         55.1303  152.7641   24.9802 C.3       1 <0>         0.0900 
      2 C2         54.5009  150.5977   22.0295 C.2       1 <0>        -0.2300 
      3 C3         51.4251  155.4772   28.3548 C.ar      1 <0>        -0.1150 
      4 C4         51.2426  154.0791   28.4337 C.ar      1 <0>        -0.1150 
      5 C5         51.9957  156.0590   27.2050 C.ar      1 <0>        -0.1150 
      6 C6         51.6321  153.2397   27.3685 C.ar      1 <0>        -0.1150 
      7 C7         53.0010  155.6214   24.8496 C.3       1 <0>        -0.0050 
      8 C8         52.8981  154.3337   24.0018 C.3       1 <0>        -0.1200 
      9 C9         53.5998  150.9199   24.3791 C.3       1 <0>         0.1500 
     10 C10        53.5957  151.1196   22.8719 C.2       1 <0>        -0.1150 
     11 C11        52.3961  155.2098   26.1605 C.ar      1 <0>        -0.1150 
     12 C12        52.2248  153.8313   26.2386 C.ar      1 <0>        -0.1150 
     13 C13        52.6280  153.1455   24.9594 C.3       1 <0>         0.3250 
     14 N1         53.7673  152.1957   25.1280 N.4       1 <0>        -0.1000 
     15 H1         55.4107  152.8618   23.9329 H         1 <0>         0.0600 
     16 H2         55.2102  153.7465   25.4395 H         1 <0>         0.0600 
     17 H3         55.8700  152.1123   25.4444 H         1 <0>         0.0600 
     18 H4         55.3145  149.9834   22.3864 H         1 <0>         0.1150 
     19 H5         54.4337  150.7780   20.9657 H         1 <0>         0.1150 
     20 H6         51.1075  156.1086   29.1710 H         1 <0>         0.1150 
     21 H7         50.7956  153.6562   29.3206 H         1 <0>         0.1150 
     22 H8         52.1267  157.1287   27.1344 H         1 <0>         0.1150 
     23 H9         51.4613  152.1739   27.4218 H         1 <0>         0.1150 
     24 H10        54.0397  155.9138   25.0051 H         1 <0>         0.0600 
     25 H11        52.4654  156.4595   24.4026 H         1 <0>         0.0600 
     26 H12        53.7070  154.1933   23.2862 H         1 <0>         0.0600 
     27 H13        51.9952  154.4482   23.4136 H         1 <0>         0.0600 
     28 H14        52.6682  150.4371   24.6769 H         1 <0>         0.0600 
     29 H15        54.4007  150.2275   24.6417 H         1 <0>         0.0600 
     30 H16        52.7971  151.7254   22.4683 H         1 <0>         0.1150 
     31 H17        51.7454  152.6003   24.6397 H         1 <0>         0.0600 
     32 H18        53.7054  151.9361   26.1006 H         1 <0>         0.2900 
@<TRIPOS>BOND
     1    1   14 1    
     2    1   15 1    
     3    1   16 1    
     4    1   17 1    
     5    2   10 2    
     6    2   18 1    
     7    2   19 1    
     8    3    4 ar   
     9    3    5 ar   
    10    3   20 1    
    11    4    6 ar   
    12    4   21 1    
    13    5   11 ar   
    14    5   22 1    
    15    6   12 ar   
    16    6   23 1    
    17    7    8 1    
    18    7   11 1    
    19    7   24 1    
    20    7   25 1    
    21    8   13 1    
    22    8   26 1    
    23    8   27 1    
    24    9   10 1    
    25    9   14 1    
    26    9   28 1    
    27    9   29 1    
    28   10   30 1    
    29   11   12 ar   
    30   12   13 1    
    31   13   14 1    
    32   13   31 1    
    33   14   32 1    
@<TRIPOS>SUBSTRUCTURE
     1 <0>         1 GROUP             0       ****    0 ROOT    
