@<TRIPOS>MOLECULE
BDV_1_3L5D
65   66    1
SMALL
USER_CHARGES


@<TRIPOS>ATOM
      1 C1         28.9666   17.7032   16.5189 C.3       1 <0>        -0.1800 
      2 C2         19.2557   12.3125   29.2921 C.3       1 <0>        -0.1800 
      3 C3         20.8956   14.0363   28.4976 C.3       1 <0>        -0.1800 
      4 C4         20.8564   14.0149   25.1795 C.3       1 <0>        -0.1800 
      5 C5         24.5657   10.1055   20.6933 C.ar      1 <0>        -0.1150 
      6 C6         22.6588   11.0081   19.4752 C.ar      1 <0>        -0.1150 
      7 C7         23.7471    9.8873   21.8131 C.ar      1 <0>        -0.1150 
      8 C8         21.8428   10.8129   20.6095 C.ar      1 <0>        -0.1150 
      9 C9         27.7252   17.3480   17.3456 C.3       1 <0>        -0.1200 
     10 C10        27.2302   15.9216   17.0711 C.3       1 <0>        -0.1200 
     11 C11        25.9831   15.5592   17.8868 C.3       1 <0>         0.0320 
     12 C12        24.8969   10.7551   18.2677 C.3       1 <0>         0.1470 
     13 C13        21.4986    9.9437   22.9777 C.3       1 <0>         0.0650 
     14 C14        19.8683   12.3111   26.8496 C.3       1 <0>        -0.1200 
     15 C15        24.0186   10.6324   19.5057 C.ar      1 <0>        -0.1150 
     16 C16        22.3811   10.2320   21.7773 C.ar      1 <0>        -0.1150 
     17 C17        22.6854   11.3169   24.7777 C.3       1 <0>         0.6625 
     18 C18        20.4508   11.6576   24.4643 C.2       1 <0>         0.5000 
     19 C19        20.3757   12.6053   28.2832 C.3       1 <0>        -0.0600 
     20 C20        25.4233   13.1758   18.3293 C.2       1 <0>         0.7661 
     21 C21        20.8393   12.5444   25.6579 C.3       1 <0>         0.2900 
     22 N1         23.7534   12.0804   24.0883 N.4       1 <0>        -0.3000 
     23 N2         22.2096   12.0680   25.9545 N.4       1 <0>        -0.2000 
     24 N3         25.5082   14.2324   17.5147 N.am      1 <0>        -0.5181 
     25 N4         24.9645   12.0927   17.6889 N.am      1 <0>        -0.5181 
     26 N5         21.5122   10.9954   23.9925 N.am      1 <0>        -0.1925 
     27 O1         19.3035   11.5804   24.0332 O.2       1 <0>        -0.5000 
     28 O2         25.7412   13.1949   19.5190 O.2       1 <0>        -0.6163 
     29 H1         29.2917   18.7234   16.7258 H         1 <0>         0.0600 
     30 H2         29.7982   17.0357   16.7485 H         1 <0>         0.0600 
     31 H3         28.7629   17.6296   15.4507 H         1 <0>         0.0600 
     32 H4         18.4026   12.9762   29.1399 H         1 <0>         0.0600 
     33 H5         19.6035   12.4507   30.3163 H         1 <0>         0.0600 
     34 H6         18.8973   11.2865   29.2014 H         1 <0>         0.0600 
     35 H7         20.1787   14.7821   28.1510 H         1 <0>         0.0600 
     36 H8         21.0785   14.2289   29.5551 H         1 <0>         0.0600 
     37 H9         21.8428   14.2014   27.9868 H         1 <0>         0.0600 
     38 H10        19.8427   14.3916   25.0318 H         1 <0>         0.0600 
     39 H11        21.3471   14.6846   25.8839 H         1 <0>         0.0600 
     40 H12        21.3777   14.1285   24.2263 H         1 <0>         0.0600 
     41 H13        25.6104    9.8286   20.7348 H         1 <0>         0.1150 
     42 H14        22.2353   11.4248   18.5729 H         1 <0>         0.1150 
     43 H15        24.1697    9.4348   22.6952 H         1 <0>         0.1150 
     44 H16        20.7975   11.0833   20.5671 H         1 <0>         0.1150 
     45 H17        26.9291   18.0593   17.1215 H         1 <0>         0.0600 
     46 H18        27.9526   17.4615   18.4060 H         1 <0>         0.0600 
     47 H19        28.0245   15.2109   17.2987 H         1 <0>         0.0600 
     48 H20        27.0114   15.8141   16.0078 H         1 <0>         0.0600 
     49 H21        25.1816   16.2706   17.6882 H         1 <0>         0.0600 
     50 H22        26.1983   15.6265   18.9546 H         1 <0>         0.0600 
     51 H23        25.9108   10.4172   18.4891 H         1 <0>         0.0600 
     52 H24        24.5089   10.0725   17.5118 H         1 <0>         0.0600 
     53 H25        21.8407    9.0311   23.4597 H         1 <0>         0.0600 
     54 H26        20.4832    9.7391   22.6339 H         1 <0>         0.0600 
     55 H27        19.5420   11.2683   26.8401 H         1 <0>         0.0600 
     56 H28        18.9568   12.8853   26.6738 H         1 <0>         0.0600 
     57 H29        23.1323   10.3857   25.1298 H         1 <0>         0.0600 
     58 H30        21.1939   11.9174   28.5045 H         1 <0>         0.0600 
     59 H31        24.0729   11.5523   23.2858 H         1 <0>         0.3300 
     60 H32        23.4072   12.9699   23.7564 H         1 <0>         0.3300 
     61 H33        24.5428   12.2309   24.7064 H         1 <0>         0.3300 
     62 H34        22.8270   12.8058   26.2623 H         1 <0>         0.3100 
     63 H35        22.1686   11.3619   26.6936 H         1 <0>         0.3100 
     64 H36        25.2654   14.1052   16.5405 H         1 <0>         0.2912 
     65 H37        24.7672   12.1781   16.6995 H         1 <0>         0.2912 
@<TRIPOS>BOND
     1    1    9 1    
     2    1   29 1    
     3    1   30 1    
     4    1   31 1    
     5    2   19 1    
     6    2   32 1    
     7    2   33 1    
     8    2   34 1    
     9    3   19 1    
    10    3   35 1    
    11    3   36 1    
    12    3   37 1    
    13    4   21 1    
    14    4   38 1    
    15    4   39 1    
    16    4   40 1    
    17    5    7 ar   
    18    5   15 ar   
    19    5   41 1    
    20    6    8 ar   
    21    6   15 ar   
    22    6   42 1    
    23    7   16 ar   
    24    7   43 1    
    25    8   16 ar   
    26    8   44 1    
    27    9   10 1    
    28    9   45 1    
    29    9   46 1    
    30   10   11 1    
    31   10   47 1    
    32   10   48 1    
    33   11   24 1    
    34   11   49 1    
    35   11   50 1    
    36   12   15 1    
    37   12   25 1    
    38   12   51 1    
    39   12   52 1    
    40   13   16 1    
    41   13   26 1    
    42   13   53 1    
    43   13   54 1    
    44   14   19 1    
    45   14   21 1    
    46   14   55 1    
    47   14   56 1    
    48   17   22 1    
    49   17   23 1    
    50   17   26 1    
    51   17   57 1    
    52   18   21 1    
    53   18   26 am   BACKBONE|DICT|INTERRES
    54   18   27 2    
    55   19   58 1    
    56   20   24 am   BACKBONE|DICT|INTERRES
    57   20   25 am   BACKBONE|DICT|INTERRES
    58   20   28 2    
    59   21   23 1    
    60   22   59 1    
    61   22   60 1    
    62   22   61 1    
    63   23   62 1    
    64   23   63 1    
    65   24   64 1    
    66   25   65 1    
@<TRIPOS>SUBSTRUCTURE
     1 <0>         1 GROUP             0       ****    0 ROOT    
@<TRIPOS>MOLECULE
BDV_1_3L5D
65   66    1
SMALL
USER_CHARGES


@<TRIPOS>ATOM
      1 C1         27.0166   19.2917   16.2969 C.3       1 <0>        -0.1800 
      2 C2         18.2964   13.0276   28.0064 C.3       1 <0>        -0.1800 
      3 C3         20.7172   12.6649   28.5844 C.3       1 <0>        -0.1800 
      4 C4         22.5152   13.1305   25.7975 C.3       1 <0>        -0.1800 
      5 C5         24.7785   11.7442   20.7144 C.ar      1 <0>        -0.1150 
      6 C6         23.4833   10.8202   18.8727 C.ar      1 <0>        -0.1150 
      7 C7         23.6830   11.5576   21.5797 C.ar      1 <0>        -0.1150 
      8 C8         22.3902   10.6304   19.7359 C.ar      1 <0>        -0.1150 
      9 C9         28.0758   18.2967   16.7910 C.3       1 <0>        -0.1200 
     10 C10        27.6730   16.8228   16.6176 C.3       1 <0>        -0.1200 
     11 C11        26.5218   16.3843   17.5363 C.3       1 <0>         0.0320 
     12 C12        25.8508   11.5662   18.4142 C.3       1 <0>         0.1470 
     13 C13        21.2692   10.7288   21.9819 C.3       1 <0>         0.0650 
     14 C14        19.9638   12.8949   26.1106 C.3       1 <0>        -0.1200 
     15 C15        24.6813   11.3733   19.3583 C.ar      1 <0>        -0.1150 
     16 C16        22.4818   10.9853   21.0970 C.ar      1 <0>        -0.1150 
     17 C17        21.7741   10.2297   24.4310 C.3       1 <0>         0.6625 
     18 C18        21.0953   12.3422   23.8933 C.2       1 <0>         0.5000 
     19 C19        19.6199   12.3983   27.5410 C.3       1 <0>        -0.0600 
     20 C20        26.2095   14.0050   18.1923 C.2       1 <0>         0.7661 
     21 C21        21.2443   12.3353   25.4232 C.3       1 <0>         0.2900 
     22 N1         23.1990    9.8401   24.4883 N.4       1 <0>        -0.3000 
     23 N2         21.4095   10.8891   25.6883 N.4       1 <0>        -0.2000 
     24 N3         26.1657   14.9912   17.2886 N.am      1 <0>        -0.5181 
     25 N4         25.8058   12.8312   17.6884 N.am      1 <0>        -0.5181 
     26 N5         21.3998   11.1445   23.3767 N.am      1 <0>        -0.1925 
     27 O1         20.7313   13.3281   23.2577 O.2       1 <0>        -0.5000 
     28 O2         26.6028   14.1516   19.3491 O.2       1 <0>        -0.6163 
     29 H1         27.3845   20.3154   16.3709 H         1 <0>         0.0600 
     30 H2         26.7585   19.1074   15.2538 H         1 <0>         0.0600 
     31 H3         26.1031   19.2306   16.8883 H         1 <0>         0.0600 
     32 H4         18.3895   14.1085   28.1173 H         1 <0>         0.0600 
     33 H5         17.9800   12.6222   28.9682 H         1 <0>         0.0600 
     34 H6         17.4929   12.8393   27.2947 H         1 <0>         0.0600 
     35 H7         21.0386   13.7066   28.5696 H         1 <0>         0.0600 
     36 H8         20.3606   12.4485   29.5922 H         1 <0>         0.0600 
     37 H9         21.5897   12.0319   28.4255 H         1 <0>         0.0600 
     38 H10        22.3672   14.2006   25.6454 H         1 <0>         0.0600 
     39 H11        22.8057   12.9932   26.8368 H         1 <0>         0.0600 
     40 H12        23.3745   12.8426   25.1901 H         1 <0>         0.0600 
     41 H13        25.6931   12.1807   21.0906 H         1 <0>         0.1150 
     42 H14        23.4098   10.5380   17.8325 H         1 <0>         0.1150 
     43 H15        23.7883   11.8713   22.6058 H         1 <0>         0.1150 
     44 H16        21.4790   10.1982   19.3479 H         1 <0>         0.1150 
     45 H17        28.3093   18.4960   17.8374 H         1 <0>         0.0600 
     46 H18        28.9989   18.4717   16.2376 H         1 <0>         0.0600 
     47 H19        28.5442   16.2024   16.8296 H         1 <0>         0.0600 
     48 H20        27.4105   16.6343   15.5754 H         1 <0>         0.0600 
     49 H21        25.6335   16.9850   17.3409 H         1 <0>         0.0600 
     50 H22        26.7898   16.5545   18.5807 H         1 <0>         0.0600 
     51 H23        26.7920   11.4684   18.9585 H         1 <0>         0.0600 
     52 H24        25.8287   10.7549   17.6885 H         1 <0>         0.0600 
     53 H25        21.0430    9.6618   21.9460 H         1 <0>         0.0600 
     54 H26        20.4079   11.2307   21.5368 H         1 <0>         0.0600 
     55 H27        19.0993   12.6697   25.4822 H         1 <0>         0.0600 
     56 H28        20.0182   13.9847   26.1198 H         1 <0>         0.0600 
     57 H29        21.1813    9.3173   24.3462 H         1 <0>         0.0600 
     58 H30        19.4538   11.3208   27.5085 H         1 <0>         0.0600 
     59 H31        23.4499    9.3441   23.6441 H         1 <0>         0.3300 
     60 H32        23.7781   10.6662   24.5357 H         1 <0>         0.3300 
     61 H33        23.4094    9.2612   25.3190 H         1 <0>         0.3300 
     62 H34        22.0567   10.6721   26.4566 H         1 <0>         0.3100 
     63 H35        20.4989   10.5408   25.9539 H         1 <0>         0.3100 
     64 H36        25.8105   14.7906   16.3626 H         1 <0>         0.2912 
     65 H37        25.5081   12.7961   16.7193 H         1 <0>         0.2912 
@<TRIPOS>BOND
     1    1    9 1    
     2    1   29 1    
     3    1   30 1    
     4    1   31 1    
     5    2   19 1    
     6    2   32 1    
     7    2   33 1    
     8    2   34 1    
     9    3   19 1    
    10    3   35 1    
    11    3   36 1    
    12    3   37 1    
    13    4   21 1    
    14    4   38 1    
    15    4   39 1    
    16    4   40 1    
    17    5    7 ar   
    18    5   15 ar   
    19    5   41 1    
    20    6    8 ar   
    21    6   15 ar   
    22    6   42 1    
    23    7   16 ar   
    24    7   43 1    
    25    8   16 ar   
    26    8   44 1    
    27    9   10 1    
    28    9   45 1    
    29    9   46 1    
    30   10   11 1    
    31   10   47 1    
    32   10   48 1    
    33   11   24 1    
    34   11   49 1    
    35   11   50 1    
    36   12   15 1    
    37   12   25 1    
    38   12   51 1    
    39   12   52 1    
    40   13   16 1    
    41   13   26 1    
    42   13   53 1    
    43   13   54 1    
    44   14   19 1    
    45   14   21 1    
    46   14   55 1    
    47   14   56 1    
    48   17   22 1    
    49   17   23 1    
    50   17   26 1    
    51   17   57 1    
    52   18   21 1    
    53   18   26 am   BACKBONE|DICT|INTERRES
    54   18   27 2    
    55   19   58 1    
    56   20   24 am   BACKBONE|DICT|INTERRES
    57   20   25 am   BACKBONE|DICT|INTERRES
    58   20   28 2    
    59   21   23 1    
    60   22   59 1    
    61   22   60 1    
    62   22   61 1    
    63   23   62 1    
    64   23   63 1    
    65   24   64 1    
    66   25   65 1    
@<TRIPOS>SUBSTRUCTURE
     1 <0>         1 GROUP             0       ****    0 ROOT    
@<TRIPOS>MOLECULE
BDV_1_3L5D
65   66    1
SMALL
USER_CHARGES


@<TRIPOS>ATOM
      1 C1         29.3787   17.6007   16.9586 C.3       1 <0>        -0.1800 
      2 C2         17.3499   11.8431   24.6113 C.3       1 <0>        -0.1800 
      3 C3         16.8539   13.5761   26.3627 C.3       1 <0>        -0.1800 
      4 C4         21.6248   13.8726   24.8911 C.3       1 <0>        -0.1800 
      5 C5         24.2862   10.0310   20.6949 C.ar      1 <0>        -0.1150 
      6 C6         22.7537   11.2325   19.2361 C.ar      1 <0>        -0.1150 
      7 C7         23.2477    9.8301   21.6220 C.ar      1 <0>        -0.1150 
      8 C8         21.7156   11.0409   20.1695 C.ar      1 <0>        -0.1150 
      9 C9         27.9974   17.3404   17.5709 C.3       1 <0>        -0.1200 
     10 C10        27.4890   15.9215   17.2812 C.3       1 <0>        -0.1200 
     11 C11        26.1073   15.6505   17.8896 C.3       1 <0>         0.0320 
     12 C12        25.1580   10.8434   18.4543 C.3       1 <0>         0.1470 
     13 C13        20.8203   10.0645   22.3373 C.3       1 <0>         0.0650 
     14 C14        19.1783   13.5233   25.4114 C.3       1 <0>        -0.1200 
     15 C15        24.0422   10.7126   19.4847 C.ar      1 <0>        -0.1150 
     16 C16        21.9532   10.3213   21.3588 C.ar      1 <0>        -0.1150 
     17 C17        21.3256   10.6336   24.7782 C.3       1 <0>         0.6625 
     18 C18        20.3489   12.2397   23.4889 C.2       1 <0>         0.5000 
     19 C19        17.9405   12.6579   25.7770 C.3       1 <0>        -0.0600 
     20 C20        25.6478   13.2629   18.3921 C.2       1 <0>         0.7661 
     21 C21        20.4769   12.8407   24.8966 C.3       1 <0>         0.2900 
     22 N1         22.7908   10.5322   24.8883 N.4       1 <0>        -0.3000 
     23 N2         20.8535   11.6678   25.7183 N.4       1 <0>        -0.2000 
     24 N3         25.6642   14.3030   17.5524 N.am      1 <0>        -0.5181 
     25 N4         25.2284   12.1419   17.7927 N.am      1 <0>        -0.5181 
     26 N5         20.8229   10.9891   23.4691 N.am      1 <0>        -0.1925 
     27 O1         19.8646   12.8435   22.5361 O.2       1 <0>        -0.5000 
     28 O2         25.9866   13.3240   19.5735 O.2       1 <0>        -0.6163 
     29 H1         29.7178   18.6137   17.1780 H         1 <0>         0.0600 
     30 H2         30.1210   16.9073   17.3550 H         1 <0>         0.0600 
     31 H3         29.3563   17.4835   15.8748 H         1 <0>         0.0600 
     32 H4         17.1610   12.4733   23.7404 H         1 <0>         0.0600 
     33 H5         16.4022   11.3827   24.8929 H         1 <0>         0.0600 
     34 H6         18.0035   11.0276   24.3060 H         1 <0>         0.0600 
     35 H7         16.5757   14.3592   25.6557 H         1 <0>         0.0600 
     36 H8         15.9427   13.0310   26.6062 H         1 <0>         0.0600 
     37 H9         17.1951   14.0614   27.2777 H         1 <0>         0.0600 
     38 H10        21.3525   14.7593   24.3153 H         1 <0>         0.0600 
     39 H11        21.8677   14.2055   25.9013 H         1 <0>         0.0600 
     40 H12        22.5413   13.4762   24.4515 H         1 <0>         0.0600 
     41 H13        25.2686    9.6310   20.9017 H         1 <0>         0.1150 
     42 H14        22.5548   11.7656   18.3189 H         1 <0>         0.1150 
     43 H15        23.4487    9.2560   22.5115 H         1 <0>         0.1150 
     44 H16        20.7313   11.4339   19.9582 H         1 <0>         0.1150 
     45 H17        27.2861   18.0705   17.1814 H         1 <0>         0.0600 
     46 H18        28.0449   17.4990   18.6488 H         1 <0>         0.0600 
     47 H19        28.2025   15.1931   17.6701 H         1 <0>         0.0600 
     48 H20        27.4377   15.7703   16.2018 H         1 <0>         0.0600 
     49 H21        25.3794   16.3584   17.4928 H         1 <0>         0.0600 
     50 H22        26.1297   15.8020   18.9698 H         1 <0>         0.0600 
     51 H23        26.1227   10.6251   18.9166 H         1 <0>         0.0600 
     52 H24        25.0048   10.0793   17.6915 H         1 <0>         0.0600 
     53 H25        20.8821    9.0357   22.6965 H         1 <0>         0.0600 
     54 H26        19.8659   10.1351   21.8128 H         1 <0>         0.0600 
     55 H27        18.8697   14.2737   24.6802 H         1 <0>         0.0600 
     56 H28        19.4417   14.0990   26.3004 H         1 <0>         0.0600 
     57 H29        20.8992    9.6751   25.0807 H         1 <0>         0.0600 
     58 H30        18.2186   11.9552   26.5633 H         1 <0>         0.0600 
     59 H31        23.1431    9.8310   24.2552 H         1 <0>         0.3300 
     60 H32        23.2447   11.4110   24.6851 H         1 <0>         0.3300 
     61 H33        23.0095   10.2304   25.8463 H         1 <0>         0.3300 
     62 H34        21.5153   11.8849   26.4512 H         1 <0>         0.3100 
     63 H35        20.0058   11.3184   26.1414 H         1 <0>         0.3100 
     64 H36        25.3969   14.1483   16.5896 H         1 <0>         0.2912 
     65 H37        25.0098   12.1791   16.8050 H         1 <0>         0.2912 
@<TRIPOS>BOND
     1    1    9 1    
     2    1   29 1    
     3    1   30 1    
     4    1   31 1    
     5    2   19 1    
     6    2   32 1    
     7    2   33 1    
     8    2   34 1    
     9    3   19 1    
    10    3   35 1    
    11    3   36 1    
    12    3   37 1    
    13    4   21 1    
    14    4   38 1    
    15    4   39 1    
    16    4   40 1    
    17    5    7 ar   
    18    5   15 ar   
    19    5   41 1    
    20    6    8 ar   
    21    6   15 ar   
    22    6   42 1    
    23    7   16 ar   
    24    7   43 1    
    25    8   16 ar   
    26    8   44 1    
    27    9   10 1    
    28    9   45 1    
    29    9   46 1    
    30   10   11 1    
    31   10   47 1    
    32   10   48 1    
    33   11   24 1    
    34   11   49 1    
    35   11   50 1    
    36   12   15 1    
    37   12   25 1    
    38   12   51 1    
    39   12   52 1    
    40   13   16 1    
    41   13   26 1    
    42   13   53 1    
    43   13   54 1    
    44   14   19 1    
    45   14   21 1    
    46   14   55 1    
    47   14   56 1    
    48   17   22 1    
    49   17   23 1    
    50   17   26 1    
    51   17   57 1    
    52   18   21 1    
    53   18   26 am   BACKBONE|DICT|INTERRES
    54   18   27 2    
    55   19   58 1    
    56   20   24 am   BACKBONE|DICT|INTERRES
    57   20   25 am   BACKBONE|DICT|INTERRES
    58   20   28 2    
    59   21   23 1    
    60   22   59 1    
    61   22   60 1    
    62   22   61 1    
    63   23   62 1    
    64   23   63 1    
    65   24   64 1    
    66   25   65 1    
@<TRIPOS>SUBSTRUCTURE
     1 <0>         1 GROUP             0       ****    0 ROOT    
@<TRIPOS>MOLECULE
BDV_1_3L5D
65   66    1
SMALL
USER_CHARGES


@<TRIPOS>ATOM
      1 C1         29.9193   17.2906   17.3734 C.3       1 <0>        -0.1800 
      2 C2         20.0643   10.2324   26.8789 C.3       1 <0>        -0.1800 
      3 C3         19.0652   11.8373   28.5461 C.3       1 <0>        -0.1800 
      4 C4         21.4112   14.1846   24.7724 C.3       1 <0>        -0.1800 
      5 C5         24.8344   10.2307   20.4879 C.ar      1 <0>        -0.1150 
      6 C6         22.8457   11.1277   19.4033 C.ar      1 <0>        -0.1150 
      7 C7         24.0768    9.9384   21.6329 C.ar      1 <0>        -0.1150 
      8 C8         22.0909   10.8541   20.5625 C.ar      1 <0>        -0.1150 
      9 C9         28.5063   17.1946   17.9598 C.3       1 <0>        -0.1200 
     10 C10        27.7886   15.8964   17.5597 C.3       1 <0>        -0.1200 
     11 C11        26.3634   15.8038   18.1243 C.3       1 <0>         0.0320 
     12 C12        25.0418   11.0481   18.1064 C.3       1 <0>         0.1470 
     13 C13        21.9035    9.9241   22.9252 C.3       1 <0>         0.0650 
     14 C14        20.2063   12.7923   26.5116 C.3       1 <0>        -0.1200 
     15 C15        24.2197   10.8053   19.3600 C.ar      1 <0>        -0.1150 
     16 C16        22.7035   10.2460   21.6779 C.ar      1 <0>        -0.1150 
     17 C17        23.0340   11.3318   24.7409 C.3       1 <0>         0.6625 
     18 C18        20.8665   11.8125   24.2017 C.2       1 <0>         0.5000 
     19 C19        20.1943   11.6177   27.5265 C.3       1 <0>        -0.0600 
     20 C20        25.6769   13.4327   18.3883 C.2       1 <0>         0.7661 
     21 C21        21.2380   12.7641   25.3497 C.3       1 <0>         0.2900 
     22 N1         24.2067   11.9588   24.0841 N.4       1 <0>        -0.3000 
     23 N2         22.5403   12.2314   25.7987 N.4       1 <0>        -0.2000 
     24 N3         25.7192   14.5721   17.6881 N.am      1 <0>        -0.5181 
     25 N4         25.1150   12.4411   17.6882 N.am      1 <0>        -0.5181 
     26 N5         21.8997   11.0199   23.8926 N.am      1 <0>        -0.1925 
     27 O1         19.7601   11.7980   23.6667 O.2       1 <0>        -0.5000 
     28 O2         26.1230   13.3067   19.5283 O.2       1 <0>        -0.6163 
     29 H1         30.3938   18.2289   17.6625 H         1 <0>         0.0600 
     30 H2         30.5497   16.4734   17.7263 H         1 <0>         0.0600 
     31 H3         29.8966   17.2491   16.2835 H         1 <0>         0.0600 
     32 H4         19.2656   10.2277   26.1367 H         1 <0>         0.0600 
     33 H5         19.8479    9.4631   27.6202 H         1 <0>         0.0600 
     34 H6         20.9942    9.9291   26.3896 H         1 <0>         0.0600 
     35 H7         18.0978   11.8828   28.0470 H         1 <0>         0.0600 
     36 H8         19.0102   11.0373   29.2838 H         1 <0>         0.0600 
     37 H9         19.2034   12.7730   29.0890 H         1 <0>         0.0600 
     38 H10        20.4509   14.5927   24.4522 H         1 <0>         0.0600 
     39 H11        21.8261   14.8727   25.5113 H         1 <0>         0.0600 
     40 H12        22.0716   14.2030   23.9033 H         1 <0>         0.0600 
     41 H13        25.8880    9.9877   20.4678 H         1 <0>         0.1150 
     42 H14        22.3663   11.5747   18.5443 H         1 <0>         0.1150 
     43 H15        24.5618    9.4722   22.4732 H         1 <0>         0.1150 
     44 H16        21.0371   11.0971   20.5856 H         1 <0>         0.1150 
     45 H17        27.9170   18.0523   17.6268 H         1 <0>         0.0600 
     46 H18        28.5640   17.2605   19.0464 H         1 <0>         0.0600 
     47 H19        28.3724   15.0411   17.9017 H         1 <0>         0.0600 
     48 H20        27.7486   15.8305   16.4722 H         1 <0>         0.0600 
     49 H21        25.7645   16.6421   17.7661 H         1 <0>         0.0600 
     50 H22        26.3765   15.8725   19.2141 H         1 <0>         0.0600 
     51 H23        26.0539   10.6653   18.2396 H         1 <0>         0.0600 
     52 H24        24.6020   10.4695   17.2952 H         1 <0>         0.0600 
     53 H25        22.3143    9.0331   23.4011 H         1 <0>         0.0600 
     54 H26        20.8841    9.6595   22.6355 H         1 <0>         0.0600 
     55 H27        19.2073   12.9046   26.0851 H         1 <0>         0.0600 
     56 H28        20.3625   13.7058   27.0847 H         1 <0>         0.0600 
     57 H29        23.3795   10.4110   25.2147 H         1 <0>         0.0600 
     58 H30        21.1285   11.6281   28.0905 H         1 <0>         0.0600 
     59 H31        24.5675   11.3349   23.3733 H         1 <0>         0.3300 
     60 H32        23.9449   12.8200   23.6270 H         1 <0>         0.3300 
     61 H33        24.9438   12.1379   24.7555 H         1 <0>         0.3300 
     62 H34        23.1938   12.9494   26.0821 H         1 <0>         0.3100 
     63 H35        22.3624   11.6237   26.5966 H         1 <0>         0.3100 
     64 H36        25.3422   14.5769   16.7486 H         1 <0>         0.2912 
     65 H37        24.8513   12.6319   16.7286 H         1 <0>         0.2912 
@<TRIPOS>BOND
     1    1    9 1    
     2    1   29 1    
     3    1   30 1    
     4    1   31 1    
     5    2   19 1    
     6    2   32 1    
     7    2   33 1    
     8    2   34 1    
     9    3   19 1    
    10    3   35 1    
    11    3   36 1    
    12    3   37 1    
    13    4   21 1    
    14    4   38 1    
    15    4   39 1    
    16    4   40 1    
    17    5    7 ar   
    18    5   15 ar   
    19    5   41 1    
    20    6    8 ar   
    21    6   15 ar   
    22    6   42 1    
    23    7   16 ar   
    24    7   43 1    
    25    8   16 ar   
    26    8   44 1    
    27    9   10 1    
    28    9   45 1    
    29    9   46 1    
    30   10   11 1    
    31   10   47 1    
    32   10   48 1    
    33   11   24 1    
    34   11   49 1    
    35   11   50 1    
    36   12   15 1    
    37   12   25 1    
    38   12   51 1    
    39   12   52 1    
    40   13   16 1    
    41   13   26 1    
    42   13   53 1    
    43   13   54 1    
    44   14   19 1    
    45   14   21 1    
    46   14   55 1    
    47   14   56 1    
    48   17   22 1    
    49   17   23 1    
    50   17   26 1    
    51   17   57 1    
    52   18   21 1    
    53   18   26 am   BACKBONE|DICT|INTERRES
    54   18   27 2    
    55   19   58 1    
    56   20   24 am   BACKBONE|DICT|INTERRES
    57   20   25 am   BACKBONE|DICT|INTERRES
    58   20   28 2    
    59   21   23 1    
    60   22   59 1    
    61   22   60 1    
    62   22   61 1    
    63   23   62 1    
    64   23   63 1    
    65   24   64 1    
    66   25   65 1    
@<TRIPOS>SUBSTRUCTURE
     1 <0>         1 GROUP             0       ****    0 ROOT    
@<TRIPOS>MOLECULE
BDV_1_3L5D
65   66    1
SMALL
USER_CHARGES


@<TRIPOS>ATOM
      1 C1         29.0545   17.7143   16.5831 C.3       1 <0>        -0.1800 
      2 C2         20.9170   12.6895   28.6373 C.3       1 <0>        -0.1800 
      3 C3         20.0137   10.7139   27.2634 C.3       1 <0>        -0.1800 
      4 C4         21.1435   14.3158   24.4968 C.3       1 <0>        -0.1800 
      5 C5         24.6091   10.1001   20.6719 C.ar      1 <0>        -0.1150 
      6 C6         22.7004   11.0083   19.4617 C.ar      1 <0>        -0.1150 
      7 C7         23.7936    9.8793   21.7935 C.ar      1 <0>        -0.1150 
      8 C8         21.8905   10.8169   20.6028 C.ar      1 <0>        -0.1150 
      9 C9         27.7873   17.3626   17.3717 C.3       1 <0>        -0.1200 
     10 C10        27.3211   15.9217   17.1226 C.3       1 <0>        -0.1200 
     11 C11        26.0587   15.5585   17.9147 C.3       1 <0>         0.0320 
     12 C12        24.9421   10.7542   18.2521 C.3       1 <0>         0.1470 
     13 C13        21.5733    9.9693   22.9906 C.3       1 <0>         0.0650 
     14 C14        19.8575   13.1457   26.3413 C.3       1 <0>        -0.1200 
     15 C15        24.0614   10.6328   19.4896 C.ar      1 <0>        -0.1150 
     16 C16        22.4329   10.2295   21.7656 C.ar      1 <0>        -0.1150 
     17 C17        22.6995   11.4566   24.7513 C.3       1 <0>         0.6625 
     18 C18        20.5369   11.9169   24.1688 C.2       1 <0>         0.5000 
     19 C19        19.8963   12.2171   27.5815 C.3       1 <0>        -0.0600 
     20 C20        25.5164   13.1656   18.3376 C.2       1 <0>         0.7661 
     21 C21        20.9250   12.9696   25.2184 C.3       1 <0>         0.2900 
     22 N1         23.8847   12.0031   24.0523 N.4       1 <0>        -0.3000 
     23 N2         22.2144   12.4495   25.7272 N.4       1 <0>        -0.2000 
     24 N3         25.5926   14.2319   17.5341 N.am      1 <0>        -0.5181 
     25 N4         25.0387   12.0952   17.6886 N.am      1 <0>        -0.5181 
     26 N5         21.5633   11.0928   23.9262 N.am      1 <0>        -0.1925 
     27 O1         19.4322   11.8727   23.6309 O.2       1 <0>        -0.5000 
     28 O2         25.8484   13.1637   19.5222 O.2       1 <0>        -0.6163 
     29 H1         29.3455   18.7517   16.7591 H         1 <0>         0.0600 
     30 H2         29.8896   17.0782   16.8778 H         1 <0>         0.0600 
     31 H3         28.8981   17.5903   15.5120 H         1 <0>         0.0600 
     32 H4         21.9466   12.4560   28.3673 H         1 <0>         0.0600 
     33 H5         20.7196   12.2316   29.6076 H         1 <0>         0.0600 
     34 H6         20.8464   13.7692   28.7955 H         1 <0>         0.0600 
     35 H7         21.0086   10.4381   26.9166 H         1 <0>         0.0600 
     36 H8         19.8124   10.1140   28.1513 H         1 <0>         0.0600 
     37 H9         19.3076   10.4128   26.4897 H         1 <0>         0.0600 
     38 H10        20.1984   14.7225   24.1285 H         1 <0>         0.0600 
     39 H11        21.5726   15.0625   25.1666 H         1 <0>         0.0600 
     40 H12        21.8077   14.2280   23.6356 H         1 <0>         0.0600 
     41 H13        25.6502    9.8186   20.7126 H         1 <0>         0.1150 
     42 H14        22.2729   11.4279   18.5627 H         1 <0>         0.1150 
     43 H15        24.2096    9.4324   22.6790 H         1 <0>         0.1150 
     44 H16        20.8471   11.0959   20.5710 H         1 <0>         0.1150 
     45 H17        26.9897   18.0537   17.0960 H         1 <0>         0.0600 
     46 H18        27.9700   17.5131   18.4378 H         1 <0>         0.0600 
     47 H19        28.1217   15.2311   17.3838 H         1 <0>         0.0600 
     48 H20        27.1325   15.7861   16.0572 H         1 <0>         0.0600 
     49 H21        25.2627   16.2683   17.6917 H         1 <0>         0.0600 
     50 H22        26.2520   15.6290   18.9851 H         1 <0>         0.0600 
     51 H23        25.9483   10.3975   18.4731 H         1 <0>         0.0600 
     52 H24        24.5470   10.0866   17.4863 H         1 <0>         0.0600 
     53 H25        21.9438    9.0865   23.5130 H         1 <0>         0.0600 
     54 H26        20.5594    9.7150   22.6749 H         1 <0>         0.0600 
     55 H27        18.8659   13.0478   25.8895 H         1 <0>         0.0600 
     56 H28        19.8745   14.1782   26.6979 H         1 <0>         0.0600 
     57 H29        23.0274   10.5643   25.2877 H         1 <0>         0.0600 
     58 H30        18.9185   12.3436   28.0531 H         1 <0>         0.0600 
     59 H31        24.2236   11.3179   23.3919 H         1 <0>         0.3300 
     60 H32        23.6482   12.8348   23.5311 H         1 <0>         0.3300 
     61 H33        24.6279   12.2106   24.7075 H         1 <0>         0.3300 
     62 H34        22.8766   13.1806   25.9424 H         1 <0>         0.3100 
     63 H35        22.0146   11.9334   26.5774 H         1 <0>         0.3100 
     64 H36        25.3361   14.1144   16.5632 H         1 <0>         0.2912 
     65 H37        24.8252   12.2001   16.7064 H         1 <0>         0.2912 
@<TRIPOS>BOND
     1    1    9 1    
     2    1   29 1    
     3    1   30 1    
     4    1   31 1    
     5    2   19 1    
     6    2   32 1    
     7    2   33 1    
     8    2   34 1    
     9    3   19 1    
    10    3   35 1    
    11    3   36 1    
    12    3   37 1    
    13    4   21 1    
    14    4   38 1    
    15    4   39 1    
    16    4   40 1    
    17    5    7 ar   
    18    5   15 ar   
    19    5   41 1    
    20    6    8 ar   
    21    6   15 ar   
    22    6   42 1    
    23    7   16 ar   
    24    7   43 1    
    25    8   16 ar   
    26    8   44 1    
    27    9   10 1    
    28    9   45 1    
    29    9   46 1    
    30   10   11 1    
    31   10   47 1    
    32   10   48 1    
    33   11   24 1    
    34   11   49 1    
    35   11   50 1    
    36   12   15 1    
    37   12   25 1    
    38   12   51 1    
    39   12   52 1    
    40   13   16 1    
    41   13   26 1    
    42   13   53 1    
    43   13   54 1    
    44   14   19 1    
    45   14   21 1    
    46   14   55 1    
    47   14   56 1    
    48   17   22 1    
    49   17   23 1    
    50   17   26 1    
    51   17   57 1    
    52   18   21 1    
    53   18   26 am   BACKBONE|DICT|INTERRES
    54   18   27 2    
    55   19   58 1    
    56   20   24 am   BACKBONE|DICT|INTERRES
    57   20   25 am   BACKBONE|DICT|INTERRES
    58   20   28 2    
    59   21   23 1    
    60   22   59 1    
    61   22   60 1    
    62   22   61 1    
    63   23   62 1    
    64   23   63 1    
    65   24   64 1    
    66   25   65 1    
@<TRIPOS>SUBSTRUCTURE
     1 <0>         1 GROUP             0       ****    0 ROOT    
@<TRIPOS>MOLECULE
BDV_1_3L5D
65   66    1
SMALL
USER_CHARGES


@<TRIPOS>ATOM
      1 C1         20.2232   18.2999   19.8439 C.3       1 <0>        -0.1800 
      2 C2         17.2134   11.9516   23.3383 C.3       1 <0>        -0.1800 
      3 C3         16.6112   10.2305   25.0491 C.3       1 <0>        -0.1800 
      4 C4         20.2450   13.1736   24.1245 C.3       1 <0>        -0.1800 
      5 C5         25.5189   11.0834   19.9738 C.ar      1 <0>        -0.1150 
      6 C6         23.3949   11.9471   19.1591 C.ar      1 <0>        -0.1150 
      7 C7         24.8427   10.3871   20.9922 C.ar      1 <0>        -0.1150 
      8 C8         22.7202   11.2538   20.1850 C.ar      1 <0>        -0.1150 
      9 C9         21.7532   18.3540   19.7542 C.3       1 <0>        -0.1200 
     10 C10        22.3368   17.1632   18.9823 C.3       1 <0>        -0.1200 
     11 C11        23.8641   17.2402   18.8355 C.3       1 <0>         0.0320 
     12 C12        25.5692   12.6705   17.9985 C.3       1 <0>         0.1470 
     13 C13        22.7366    9.7044   22.2188 C.3       1 <0>         0.0650 
     14 C14        18.9922   11.1294   25.0586 C.3       1 <0>        -0.1200 
     15 C15        24.8025   11.8825   19.0595 C.ar      1 <0>        -0.1150 
     16 C16        23.4440   10.4802   21.1187 C.ar      1 <0>        -0.1150 
     17 C17        22.5854   10.9190   24.4837 C.3       1 <0>         0.6625 
     18 C18        20.7466   10.9119   23.1224 C.2       1 <0>         0.5000 
     19 C19        17.7526   10.7831   24.1819 C.3       1 <0>        -0.0600 
     20 C20        24.8272   14.9599   18.6222 C.2       1 <0>         0.7661 
     21 C21        20.3100   11.6539   24.3995 C.3       1 <0>         0.2900 
     22 N1         23.6451   11.9552   24.4605 N.4       1 <0>        -0.3000 
     23 N2         21.4565   11.3931   25.3083 N.4       1 <0>        -0.2000 
     24 N3         24.3624   16.0935   18.0875 N.am      1 <0>        -0.5181 
     25 N4         25.0633   14.0120   17.6980 N.am      1 <0>        -0.5181 
     26 N5         22.0270   10.5307   23.1999 N.am      1 <0>        -0.1925 
     27 O1         20.0109   10.7136   22.1588 O.2       1 <0>        -0.5000 
     28 O2         24.9891   14.8029   19.8323 O.2       1 <0>        -0.6163 
     29 H1         19.8376   19.1508   20.4053 H         1 <0>         0.0600 
     30 H2         19.7700   18.3231   18.8525 H         1 <0>         0.0600 
     31 H3         19.8850   17.3915   20.3437 H         1 <0>         0.0600 
     32 H4         17.0432   12.8398   23.9464 H         1 <0>         0.0600 
     33 H5         16.2650   11.6895   22.8682 H         1 <0>         0.0600 
     34 H6         17.8887   12.2139   22.5262 H         1 <0>         0.0600 
     35 H7         16.1837   11.0056   25.6829 H         1 <0>         0.0600 
     36 H8         15.8041    9.8378   24.4289 H         1 <0>         0.0600 
     37 H9         16.9485    9.4158   25.6878 H         1 <0>         0.0600 
     38 H10        19.4703   13.4391   23.4092 H         1 <0>         0.0600 
     39 H11        20.0418   13.7345   25.0377 H         1 <0>         0.0600 
     40 H12        21.1806   13.5547   23.7140 H         1 <0>         0.0600 
     41 H13        26.5951   11.0110   19.9080 H         1 <0>         0.1150 
     42 H14        22.8297   12.5424   18.4575 H         1 <0>         0.1150 
     43 H15        25.4099    9.7818   21.6823 H         1 <0>         0.1150 
     44 H16        21.6439   11.3158   20.2408 H         1 <0>         0.1150 
     45 H17        22.1734   18.3786   20.7601 H         1 <0>         0.0600 
     46 H18        22.0516   19.2853   19.2710 H         1 <0>         0.0600 
     47 H19        21.8816   17.1172   17.9921 H         1 <0>         0.0600 
     48 H20        22.0653   16.2364   19.4899 H         1 <0>         0.0600 
     49 H21        24.3411   17.3049   19.8151 H         1 <0>         0.0600 
     50 H22        24.1427   18.1451   18.2944 H         1 <0>         0.0600 
     51 H23        26.6058   12.7762   18.3161 H         1 <0>         0.0600 
     52 H24        25.5843   12.0830   17.0814 H         1 <0>         0.0600 
     53 H25        23.4430    9.0560   22.7368 H         1 <0>         0.0600 
     54 H26        22.0313    9.0321   21.7267 H         1 <0>         0.0600 
     55 H27        18.6792   11.8466   25.8190 H         1 <0>         0.0600 
     56 H28        19.2355   10.2294   25.6221 H         1 <0>         0.0600 
     57 H29        23.0069   10.0310   24.9549 H         1 <0>         0.0600 
     58 H30        18.0219    9.9725   23.5046 H         1 <0>         0.0600 
     59 H31        24.4406   11.5892   23.9533 H         1 <0>         0.3300 
     60 H32        23.3269   12.7775   23.9675 H         1 <0>         0.3300 
     61 H33        23.9659   12.2266   25.3854 H         1 <0>         0.3300 
     62 H34        21.6770   12.1932   25.8830 H         1 <0>         0.3100 
     63 H35        21.2156   10.6282   25.9271 H         1 <0>         0.3100 
     64 H36        24.3018   16.1532   17.0792 H         1 <0>         0.2912 
     65 H37        24.9467   14.2402   16.7207 H         1 <0>         0.2912 
@<TRIPOS>BOND
     1    1    9 1    
     2    1   29 1    
     3    1   30 1    
     4    1   31 1    
     5    2   19 1    
     6    2   32 1    
     7    2   33 1    
     8    2   34 1    
     9    3   19 1    
    10    3   35 1    
    11    3   36 1    
    12    3   37 1    
    13    4   21 1    
    14    4   38 1    
    15    4   39 1    
    16    4   40 1    
    17    5    7 ar   
    18    5   15 ar   
    19    5   41 1    
    20    6    8 ar   
    21    6   15 ar   
    22    6   42 1    
    23    7   16 ar   
    24    7   43 1    
    25    8   16 ar   
    26    8   44 1    
    27    9   10 1    
    28    9   45 1    
    29    9   46 1    
    30   10   11 1    
    31   10   47 1    
    32   10   48 1    
    33   11   24 1    
    34   11   49 1    
    35   11   50 1    
    36   12   15 1    
    37   12   25 1    
    38   12   51 1    
    39   12   52 1    
    40   13   16 1    
    41   13   26 1    
    42   13   53 1    
    43   13   54 1    
    44   14   19 1    
    45   14   21 1    
    46   14   55 1    
    47   14   56 1    
    48   17   22 1    
    49   17   23 1    
    50   17   26 1    
    51   17   57 1    
    52   18   21 1    
    53   18   26 am   BACKBONE|DICT|INTERRES
    54   18   27 2    
    55   19   58 1    
    56   20   24 am   BACKBONE|DICT|INTERRES
    57   20   25 am   BACKBONE|DICT|INTERRES
    58   20   28 2    
    59   21   23 1    
    60   22   59 1    
    61   22   60 1    
    62   22   61 1    
    63   23   62 1    
    64   23   63 1    
    65   24   64 1    
    66   25   65 1    
@<TRIPOS>SUBSTRUCTURE
     1 <0>         1 GROUP             0       ****    0 ROOT    
