@<TRIPOS>MOLECULE
SM5_1_3D4Q
52   56    1
SMALL
USER_CHARGES


@<TRIPOS>ATOM
      1 C1         82.1108    9.7161   -7.4393 C.ar      1 <0>        -0.4470 
      2 C2         83.7756   10.2283   -9.1099 C.ar      1 <0>        -0.4470 
      3 C3         81.3807   10.8235   -7.8980 C.ar      1 <0>         0.4730 
      4 C4         82.9955   11.3444   -9.4626 C.ar      1 <0>         0.4730 
      5 C5         84.7499    6.2092   -6.8707 C.ar      1 <0>         0.0360 
      6 C6         88.0283    7.0664   -8.3202 C.3       1 <0>        -0.1200 
      7 C7         87.7924    7.6234   -5.8653 C.3       1 <0>        -0.1200 
      8 C8         89.5358    6.8685   -8.0984 C.3       1 <0>         0.1700 
      9 C9         89.3089    7.4274   -5.7077 C.3       1 <0>         0.1700 
     10 C10        80.0108    4.0226   -5.3005 C.2       1 <0>        -0.1150 
     11 C11        78.9095    3.6235   -5.9413 C.2       1 <0>        -0.1150 
     12 C12        81.2395    6.8613   -8.0578 C.2       1 <0>        -0.1150 
     13 C13        79.9776    6.3969   -8.0523 C.2       1 <0>        -0.1150 
     14 C14        81.8894    5.6612   -6.0512 C.2       1 <0>        -0.1150 
     15 C15        83.3165    9.3716   -8.0882 C.ar      1 <0>         0.2920 
     16 C16        83.6219    6.8922   -7.2288 C.ar      1 <0>        -0.1700 
     17 C17        84.0686    8.1665   -7.6986 C.ar      1 <0>         0.3380 
     18 C18        87.2334    6.7767   -7.0277 C.3       1 <0>         0.0625 
     19 C19        80.4275    5.3828   -5.7627 C.3       1 <0>        -0.0600 
     20 C20        82.2592    6.4373   -7.0935 C.2       1 <0>         0.0000 
     21 C21        79.5896    5.4697   -7.0168 C.2       1 <0>         0.0000 
     22 C22        78.6667    4.4843   -7.0727 C.2       1 <0>         0.0180 
     23 N1         81.8032   11.6232   -8.8982 N.ar      1 <0>        -0.6780 
     24 N2         85.3946    8.2079   -7.6982 N.2       1 <0>        -0.5310 
     25 N3         90.0105    7.7125   -6.9800 N.4       1 <0>        -0.2000 
     26 N4         77.8034    4.1155   -8.0972 N.pl3     1 <0>        -0.2717 
     27 N5         85.8115    7.0199   -7.2060 N.pl3     1 <0>         0.0695 
     28 O1         77.8029    4.8669   -9.2819 O.3       1 <0>        -0.5507 
     29 H1         81.7327    9.1293   -6.6156 H         1 <0>         0.1550 
     30 H2         84.7064   10.0332   -9.6204 H         1 <0>         0.1550 
     31 H3         80.4401   11.0886   -7.4389 H         1 <0>         0.0120 
     32 H4         83.3222   12.0178  -10.2411 H         1 <0>         0.0120 
     33 H5         84.8863    5.2271   -6.4413 H         1 <0>         0.1350 
     34 H6         87.6792    6.4236   -9.1293 H         1 <0>         0.0600 
     35 H7         87.8543    8.0904   -8.6550 H         1 <0>         0.0600 
     36 H8         87.5834    8.6801   -6.0403 H         1 <0>         0.0600 
     37 H9         87.2848    7.3638   -4.9348 H         1 <0>         0.0600 
     38 H10        89.7546    5.8219   -7.8828 H         1 <0>         0.0600 
     39 H11        90.0857    7.1284   -9.0039 H         1 <0>         0.0600 
     40 H12        89.5274    6.4043   -5.3973 H         1 <0>         0.0600 
     41 H13        89.6946    8.0855   -4.9279 H         1 <0>         0.0600 
     42 H14        80.4985    3.5070   -4.4981 H         1 <0>         0.1150 
     43 H15        78.3561    2.7293   -5.6992 H         1 <0>         0.1150 
     44 H16        81.5159    7.5400   -8.8478 H         1 <0>         0.1150 
     45 H17        79.2726    6.7464   -8.7908 H         1 <0>         0.1150 
     46 H18        82.6036    5.3491   -5.3027 H         1 <0>         0.1150 
     47 H19        87.3529    5.7205   -6.7787 H         1 <0>         0.0600 
     48 H20        80.0785    6.1164   -5.0345 H         1 <0>         0.0600 
     49 H21        91.0020    7.5645   -6.8532 H         1 <0>         0.3100 
     50 H22        89.8567    8.6808   -7.2253 H         1 <0>         0.3100 
     51 H23        76.8658    3.8460   -7.8317 H         1 <0>         0.3537 
     52 H24        77.1444    4.4739   -9.8477 H         1 <0>         0.4507 
@<TRIPOS>BOND
     1    1    3 ar   
     2    1   15 ar   
     3    1   29 1    
     4    2    4 ar   
     5    2   15 ar   
     6    2   30 1    
     7    3   23 ar   
     8    3   31 1    
     9    4   23 ar   
    10    4   32 1    
    11    5   16 ar   
    12    5   27 ar   
    13    5   33 1    
    14    6    8 1    
    15    6   18 1    
    16    6   34 1    
    17    6   35 1    
    18    7    9 1    
    19    7   18 1    
    20    7   36 1    
    21    7   37 1    
    22    8   25 1    
    23    8   38 1    
    24    8   39 1    
    25    9   25 1    
    26    9   40 1    
    27    9   41 1    
    28   10   11 2    
    29   10   19 1    
    30   10   42 1    
    31   11   22 1    
    32   11   43 1    
    33   12   13 2    
    34   12   20 1    
    35   12   44 1    
    36   13   21 1    
    37   13   45 1    
    38   14   19 1    
    39   14   20 2    
    40   14   46 1    
    41   15   17 1    
    42   16   17 ar   
    43   16   20 1    
    44   17   24 ar   
    45   18   27 1    
    46   18   47 1    
    47   19   21 1    
    48   19   48 1    
    49   21   22 2    
    50   22   26 1    
    51   24   27 ar   
    52   25   49 1    
    53   25   50 1    
    54   26   28 1    
    55   26   51 1    
    56   28   52 1    
@<TRIPOS>SUBSTRUCTURE
     1 <0>         1 GROUP             0       ****    0 ROOT    
@<TRIPOS>MOLECULE
SM5_1_3D4Q
52   56    1
SMALL
USER_CHARGES


@<TRIPOS>ATOM
      1 C1         81.1885    9.6778   -7.2521 C.ar      1 <0>        -0.4470 
      2 C2         82.7021    9.1240   -9.0491 C.ar      1 <0>        -0.4470 
      3 C3         81.1073   10.9669   -7.7904 C.ar      1 <0>         0.4730 
      4 C4         82.6085   10.4647   -9.4648 C.ar      1 <0>         0.4730 
      5 C5         82.2044    5.3401   -6.4978 C.ar      1 <0>         0.0360 
      6 C6         79.0826    4.9840   -5.2997 C.3       1 <0>        -0.1200 
      7 C7         78.6547    4.9673   -7.7624 C.3       1 <0>        -0.1200 
      8 C8         77.8973    4.0236   -5.1140 C.3       1 <0>         0.1700 
      9 C9         77.4724    4.0141   -7.5544 C.3       1 <0>         0.1700 
     10 C10        87.5001    7.8386   -8.4274 C.2       1 <0>        -0.1150 
     11 C11        88.5037    6.9547   -8.4546 C.2       1 <0>        -0.1150 
     12 C12        85.0994    5.6236   -5.8422 C.2       1 <0>        -0.1150 
     13 C13        86.4459    5.5434   -5.7898 C.2       1 <0>        -0.1150 
     14 C14        85.1311    7.4541   -7.4196 C.2       1 <0>        -0.1150 
     15 C15        82.0024    8.7259   -7.8929 C.ar      1 <0>         0.2920 
     16 C16        82.9408    6.4225   -6.9014 C.ar      1 <0>        -0.1700 
     17 C17        81.9666    7.3500   -7.4040 C.ar      1 <0>         0.3380 
     18 C18        79.7275    4.7451   -6.6704 C.3       1 <0>         0.0625 
     19 C19        86.6290    7.6261   -7.2152 C.3       1 <0>        -0.0600 
     20 C20        84.3907    6.5188   -6.7740 C.2       1 <0>         0.0000 
     21 C21        87.2231    6.3389   -6.7092 C.2       1 <0>         0.0000 
     22 C22        88.3425    5.9971   -7.3860 C.2       1 <0>         0.0180 
     23 N1         81.8031   11.3656   -8.8733 N.ar      1 <0>        -0.6780 
     24 N2         80.7558    6.8149   -7.3641 N.2       1 <0>        -0.5310 
     25 N3         76.9015    4.1527   -6.1971 N.4       1 <0>        -0.2000 
     26 N4         89.1271    4.8544   -7.2962 N.pl3     1 <0>        -0.2717 
     27 N5         80.8967    5.5834   -6.8501 N.pl3     1 <0>         0.0695 
     28 O1         89.0030    4.0232   -6.1771 O.3       1 <0>        -0.5507 
     29 H1         80.6043    9.4093   -6.3845 H         1 <0>         0.1550 
     30 H2         83.2969    8.4236   -9.6134 H         1 <0>         0.1550 
     31 H3         80.4566   11.6963   -7.3347 H         1 <0>         0.0120 
     32 H4         83.1567   10.8075  -10.3295 H         1 <0>         0.0120 
     33 H5         82.5005    4.4083   -6.0367 H         1 <0>         0.1350 
     34 H6         79.8141    4.8250   -4.5045 H         1 <0>         0.0600 
     35 H7         78.7581    6.0229   -5.2175 H         1 <0>         0.0600 
     36 H8         78.2871    5.9957   -7.7385 H         1 <0>         0.0600 
     37 H9         79.0804    4.8227   -8.7559 H         1 <0>         0.0600 
     38 H10        78.2701    3.0001   -5.1095 H         1 <0>         0.0600 
     39 H11        77.4053    4.1895   -4.1567 H         1 <0>         0.0600 
     40 H12        77.7967    2.9844   -7.6962 H         1 <0>         0.0600 
     41 H13        76.6986    4.1977   -8.2998 H         1 <0>         0.0600 
     42 H14        87.3582    8.6528   -9.1231 H         1 <0>         0.1150 
     43 H15        89.2775    6.9250   -9.2091 H         1 <0>         0.1150 
     44 H16        84.5399    5.0334   -5.1324 H         1 <0>         0.1150 
     45 H17        86.9195    4.9021   -5.0641 H         1 <0>         0.1150 
     46 H18        84.6974    8.1736   -8.0782 H         1 <0>         0.1150 
     47 H19        80.0693    3.7106   -6.7303 H         1 <0>         0.0600 
     48 H20        86.8281    8.4233   -6.5005 H         1 <0>         0.0600 
     49 H21        76.1945    3.4417   -6.0526 H         1 <0>         0.3100 
     50 H22        76.4704    5.0632   -6.1264 H         1 <0>         0.3100 
     51 H23        90.0528    4.8147   -7.7052 H         1 <0>         0.3537 
     52 H24        88.1547    3.5908   -6.2663 H         1 <0>         0.4507 
@<TRIPOS>BOND
     1    1    3 ar   
     2    1   15 ar   
     3    1   29 1    
     4    2    4 ar   
     5    2   15 ar   
     6    2   30 1    
     7    3   23 ar   
     8    3   31 1    
     9    4   23 ar   
    10    4   32 1    
    11    5   16 ar   
    12    5   27 ar   
    13    5   33 1    
    14    6    8 1    
    15    6   18 1    
    16    6   34 1    
    17    6   35 1    
    18    7    9 1    
    19    7   18 1    
    20    7   36 1    
    21    7   37 1    
    22    8   25 1    
    23    8   38 1    
    24    8   39 1    
    25    9   25 1    
    26    9   40 1    
    27    9   41 1    
    28   10   11 2    
    29   10   19 1    
    30   10   42 1    
    31   11   22 1    
    32   11   43 1    
    33   12   13 2    
    34   12   20 1    
    35   12   44 1    
    36   13   21 1    
    37   13   45 1    
    38   14   19 1    
    39   14   20 2    
    40   14   46 1    
    41   15   17 1    
    42   16   17 ar   
    43   16   20 1    
    44   17   24 ar   
    45   18   27 1    
    46   18   47 1    
    47   19   21 1    
    48   19   48 1    
    49   21   22 2    
    50   22   26 1    
    51   24   27 ar   
    52   25   49 1    
    53   25   50 1    
    54   26   28 1    
    55   26   51 1    
    56   28   52 1    
@<TRIPOS>SUBSTRUCTURE
     1 <0>         1 GROUP             0       ****    0 ROOT    
@<TRIPOS>MOLECULE
SM5_1_3D4Q
52   56    1
SMALL
USER_CHARGES


@<TRIPOS>ATOM
      1 C1         83.7959   10.2151   -9.1427 C.ar      1 <0>        -0.4470 
      2 C2         82.2376    9.7642   -7.3576 C.ar      1 <0>        -0.4470 
      3 C3         82.9771   11.3003   -9.5030 C.ar      1 <0>         0.4730 
      4 C4         81.4569   10.8255   -7.8341 C.ar      1 <0>         0.4730 
      5 C5         84.8268    6.2096   -6.8868 C.ar      1 <0>         0.0360 
      6 C6         88.1092    7.0696   -8.3243 C.3       1 <0>        -0.1200 
      7 C7         87.8650    7.6115   -5.8652 C.3       1 <0>        -0.1200 
      8 C8         89.6160    6.8752   -8.1003 C.3       1 <0>         0.1700 
      9 C9         89.3811    7.4127   -5.7039 C.3       1 <0>         0.1700 
     10 C10        80.0572    4.0204   -5.2999 C.2       1 <0>        -0.1150 
     11 C11        78.9430    3.6977   -5.9677 C.2       1 <0>        -0.1150 
     12 C12        81.2824    6.9962   -7.9182 C.2       1 <0>        -0.1150 
     13 C13        80.0003    6.6087   -7.8532 C.2       1 <0>        -0.1150 
     14 C14        81.9802    5.6428   -6.0298 C.2       1 <0>        -0.1150 
     15 C15        83.4004    9.3924   -8.0680 C.ar      1 <0>         0.2920 
     16 C16        83.6993    6.9062   -7.2202 C.ar      1 <0>        -0.1700 
     17 C17        84.1522    8.1791   -7.6982 C.ar      1 <0>         0.3380 
     18 C18        87.3102    6.7735   -7.0365 C.3       1 <0>         0.0625 
     19 C19        80.5201    5.3979   -5.6779 C.3       1 <0>        -0.0600 
     20 C20        82.3321    6.4704   -7.0428 C.2       1 <0>         0.0000 
     21 C21        79.6339    5.6160   -6.8823 C.2       1 <0>         0.0000 
     22 C22        78.6968    4.6572   -7.0126 C.2       1 <0>         0.0180 
     23 N1         81.8046   11.5763   -8.8981 N.ar      1 <0>        -0.6780 
     24 N2         85.4780    8.2153   -7.6987 N.2       1 <0>        -0.5310 
     25 N3         90.0855    7.7093   -6.9722 N.4       1 <0>        -0.2000 
     26 N4         77.8026    4.4237   -8.0521 N.pl3     1 <0>        -0.2717 
     27 N5         85.8900    7.0208   -7.2183 N.pl3     1 <0>         0.0695 
     28 O1         77.9011    5.1573   -9.2445 O.3       1 <0>        -0.5507 
     29 H1         84.7006   10.0170   -9.6964 H         1 <0>         0.1550 
     30 H2         81.9157    9.2108   -6.4874 H         1 <0>         0.1550 
     31 H3         83.2503   11.9437  -10.3262 H         1 <0>         0.0120 
     32 H4         80.5384   11.0968   -7.3349 H         1 <0>         0.0120 
     33 H5         84.9622    5.2267   -6.4599 H         1 <0>         0.1350 
     34 H6         87.7648    6.4244   -9.1338 H         1 <0>         0.0600 
     35 H7         87.9356    8.0938   -8.6554 H         1 <0>         0.0600 
     36 H8         87.6558    8.6698   -6.0302 H         1 <0>         0.0600 
     37 H9         87.3539    7.3428   -4.9394 H         1 <0>         0.0600 
     38 H10        89.8377    5.8265   -7.8972 H         1 <0>         0.0600 
     39 H11        90.1664    7.1474   -9.0016 H         1 <0>         0.0600 
     40 H12        89.5973    6.3864   -5.4037 H         1 <0>         0.0600 
     41 H13        89.7640    8.0630   -4.9165 H         1 <0>         0.0600 
     42 H14        80.5049    3.4554   -4.4985 H         1 <0>         0.1150 
     43 H15        78.3457    2.8225   -5.7885 H         1 <0>         0.1150 
     44 H16        81.5351    7.7048   -8.6877 H         1 <0>         0.1150 
     45 H17        79.2667    7.0538   -8.5042 H         1 <0>         0.1150 
     46 H18        82.7166    5.2599   -5.3384 H         1 <0>         0.1150 
     47 H19        87.4269    5.7158   -6.7951 H         1 <0>         0.0600 
     48 H20        80.2367    6.0895   -4.8836 H         1 <0>         0.0600 
     49 H21        91.0775    7.5625   -6.8444 H         1 <0>         0.3100 
     50 H22        89.9302    8.6801   -7.2087 H         1 <0>         0.3100 
     51 H23        77.2683    3.5720   -8.1536 H         1 <0>         0.3537 
     52 H24        77.3239    5.9022   -9.1490 H         1 <0>         0.4507 
@<TRIPOS>BOND
     1    1    3 ar   
     2    1   15 ar   
     3    1   29 1    
     4    2    4 ar   
     5    2   15 ar   
     6    2   30 1    
     7    3   23 ar   
     8    3   31 1    
     9    4   23 ar   
    10    4   32 1    
    11    5   16 ar   
    12    5   27 ar   
    13    5   33 1    
    14    6    8 1    
    15    6   18 1    
    16    6   34 1    
    17    6   35 1    
    18    7    9 1    
    19    7   18 1    
    20    7   36 1    
    21    7   37 1    
    22    8   25 1    
    23    8   38 1    
    24    8   39 1    
    25    9   25 1    
    26    9   40 1    
    27    9   41 1    
    28   10   11 2    
    29   10   19 1    
    30   10   42 1    
    31   11   22 1    
    32   11   43 1    
    33   12   13 2    
    34   12   20 1    
    35   12   44 1    
    36   13   21 1    
    37   13   45 1    
    38   14   19 1    
    39   14   20 2    
    40   14   46 1    
    41   15   17 1    
    42   16   17 ar   
    43   16   20 1    
    44   17   24 ar   
    45   18   27 1    
    46   18   47 1    
    47   19   21 1    
    48   19   48 1    
    49   21   22 2    
    50   22   26 1    
    51   24   27 ar   
    52   25   49 1    
    53   25   50 1    
    54   26   28 1    
    55   26   51 1    
    56   28   52 1    
@<TRIPOS>SUBSTRUCTURE
     1 <0>         1 GROUP             0       ****    0 ROOT    
