@<TRIPOS>MOLECULE
FMS_500_1BCD
10   9    1
SMALL
USER_CHARGES


@<TRIPOS>ATOM
      1 C1         -6.8510    1.8440   17.3266 C.3       1 <0>        -0.1843 
      2 N1         -5.4769   -0.2487   16.1264 N.pl3     1 <0>        -0.7962 
      3 O1         -5.3284    2.0984   15.1094 O.2       1 <0>        -0.6455 
      4 O2         -4.1800    1.5507   17.3265 O.2       1 <0>        -0.6455 
      5 F1         -6.6759    1.5692   18.6188 F         1 <0>        -0.0150 
      6 F2         -7.8765    1.1507   16.8337 F         1 <0>        -0.0150 
      7 F3         -7.0811    3.1479   17.1730 F         1 <0>        -0.0150 
      8 S1         -5.3155    1.4153   16.4106 S.o2      1 <0>         1.6021 
      9 H1         -5.5642   -0.4494   15.1289 H         1 <0>         0.3572 
     10 H2         -4.7846   -0.8079   16.6422 H         1 <0>         0.3572 
@<TRIPOS>BOND
     1    1    5 1    
     2    1    6 1    
     3    1    7 1    
     4    1    8 1    
     5    2    8 1    
     6    2    9 1    
     7    2   10 1    
     8    3    8 2    
     9    4    8 2    
@<TRIPOS>SUBSTRUCTURE
     1 <0>         1 GROUP             0       ****    0 ROOT    
@<TRIPOS>MOLECULE
FMS_500_1BCD
10   9    1
SMALL
USER_CHARGES


@<TRIPOS>ATOM
      1 C1         -5.0494    2.0842   15.5764 C.3       1 <0>        -0.1843 
      2 N1         -5.8768   -0.4493   16.3695 N.pl3     1 <0>        -0.7962 
      3 O1         -5.0768    1.1507   18.1265 O.2       1 <0>        -0.6455 
      4 O2         -7.3221    1.5507   16.9788 O.2       1 <0>        -0.6455 
      5 F1         -3.8768    2.5215   16.0337 F         1 <0>        -0.0150 
      6 F2         -5.8083    3.1181   15.2149 F         1 <0>        -0.0150 
      7 F3         -4.8499    1.2885   14.5265 F         1 <0>        -0.0150 
      8 S1         -5.9101    1.1467   16.9192 S.o2      1 <0>         1.6021 
      9 H1         -5.1534   -0.9650   16.8828 H         1 <0>         0.3572 
     10 H2         -6.8069   -0.8716   16.4920 H         1 <0>         0.3572 
@<TRIPOS>BOND
     1    1    5 1    
     2    1    6 1    
     3    1    7 1    
     4    1    8 1    
     5    2    8 1    
     6    2    9 1    
     7    2   10 1    
     8    3    8 2    
     9    4    8 2    
@<TRIPOS>SUBSTRUCTURE
     1 <0>         1 GROUP             0       ****    0 ROOT    
@<TRIPOS>MOLECULE
FMS_500_1BCD
10   9    1
SMALL
USER_CHARGES


@<TRIPOS>ATOM
      1 C1         -5.6974    3.2519   15.3226 C.3       1 <0>        -0.1843 
      2 N1         -4.2768    1.1723   14.1779 N.pl3     1 <0>        -0.7962 
      3 O1         -3.6373    1.9504   16.5265 O.2       1 <0>        -0.6455 
      4 O2         -5.8229    0.6858   16.1683 O.2       1 <0>        -0.6455 
      5 F1         -6.2768    3.1535   14.1265 F         1 <0>        -0.0150 
      6 F2         -4.8165    4.2515   15.3265 F         1 <0>        -0.0150 
      7 F3         -6.6328    3.4686   16.2470 F         1 <0>        -0.0150 
      8 S1         -4.8288    1.6677   15.7148 S.o2      1 <0>         1.6021 
      9 H1         -3.2548    1.1507   14.1296 H         1 <0>         0.3572 
     10 H2         -4.7625    0.3445   13.8319 H         1 <0>         0.3572 
@<TRIPOS>BOND
     1    1    5 1    
     2    1    6 1    
     3    1    7 1    
     4    1    8 1    
     5    2    8 1    
     6    2    9 1    
     7    2   10 1    
     8    3    8 2    
     9    4    8 2    
@<TRIPOS>SUBSTRUCTURE
     1 <0>         1 GROUP             0       ****    0 ROOT    
