@<TRIPOS>MOLECULE
FAP_A1300_1H00
54   56    1
SMALL
USER_CHARGES


@<TRIPOS>ATOM
      1 C1         -4.4706   24.4285   15.2403 C.3       1 <0>         0.0900 
      2 C2         -4.6051   26.0316   13.3600 C.3       1 <0>         0.0900 
      3 C3          4.3890   24.2708    5.5763 C.ar      1 <0>        -0.1150 
      4 C4          4.5521   25.1226    4.4671 C.ar      1 <0>        -0.1150 
      5 C5          4.4046   24.8018    6.8810 C.ar      1 <0>        -0.1150 
      6 C6         -0.7917   29.5656    9.8571 C.ar      1 <0>        -0.1150 
      7 C7          1.2794   28.3189    9.7633 C.ar      1 <0>        -0.1150 
      8 C8         -1.1767   28.8292   10.9971 C.ar      1 <0>        -0.1150 
      9 C9          0.8864   27.5598   10.8702 C.ar      1 <0>        -0.1150 
     10 C10         2.8666   29.1149    7.1648 C.ar      1 <0>        -0.6890 
     11 C11         3.3549   31.5385    6.1649 C.ar      1 <0>         0.8740 
     12 C12        -2.3766   25.0504   14.0307 C.3       1 <0>         0.1500 
     13 C13        -1.5954   27.4610   13.4941 C.3       1 <0>         0.1400 
     14 C14         0.4428   29.3214    9.2189 C.ar      1 <0>         0.2000 
     15 C15        -0.3350   27.8076   11.5058 C.ar      1 <0>         0.0850 
     16 C16         4.7412   26.5032    4.6646 C.ar      1 <0>         0.2200 
     17 C17         4.5872   26.1837    7.0807 C.ar      1 <0>         0.2200 
     18 C18         1.9663   30.1809    7.3585 C.ar      1 <0>         0.8640 
     19 C19         4.0356   29.3871    6.4439 C.ar      1 <0>         0.8640 
     20 C20         4.7488   27.0400    5.9699 C.ar      1 <0>         0.2000 
     21 C21        -1.7883   26.3835   14.5705 C.3       1 <0>         0.2050 
     22 N1          2.1915   31.3778    6.7862 N.ar      1 <0>        -0.8390 
     23 N2          4.2995   30.6201    5.9858 N.ar      1 <0>        -0.8390 
     24 N3          0.7812   30.1182    8.1065 N.pl3     1 <0>        -0.7800 
     25 N4          4.9769   28.4081    6.1347 N.pl3     1 <0>        -0.7800 
     26 N5         -3.8599   24.9182   13.9862 N.4       1 <0>        -0.1000 
     27 O1         -2.5187   26.9182   15.6555 O.3       1 <0>        -0.6830 
     28 O2         -0.6043   27.0176   12.5959 O.3       1 <0>        -0.2850 
     29 F1          4.9063   27.3178    3.5944 F         1 <0>        -0.2200 
     30 F2          4.6175   26.6802    8.3411 F         1 <0>        -0.2200 
     31 H1         -4.3963   25.1650   16.0397 H         1 <0>         0.0600 
     32 H2         -3.9844   23.5098   15.5697 H         1 <0>         0.0600 
     33 H3         -5.5242   24.1948   15.0825 H         1 <0>         0.0600 
     34 H4         -4.6115   26.9200   13.9884 H         1 <0>         0.0600 
     35 H5         -4.1828   26.2762   12.3855 H         1 <0>         0.0600 
     36 H6         -5.6384   25.7306   13.1860 H         1 <0>         0.0600 
     37 H7          4.2394   23.2119    5.4246 H         1 <0>         0.1150 
     38 H8          4.5347   24.7204    3.4631 H         1 <0>         0.1150 
     39 H9          4.2699   24.1492    7.7302 H         1 <0>         0.1150 
     40 H10        -1.4523   30.3343    9.4837 H         1 <0>         0.1150 
     41 H11         2.2726   28.1186    9.4123 H         1 <0>         0.1150 
     42 H12        -2.1244   29.0705   11.4543 H         1 <0>         0.1150 
     43 H13         1.5558   26.8088   11.2653 H         1 <0>         0.1150 
     44 H14         2.6897   28.1182    7.5068 H         1 <0>         0.1970 
     45 H15         3.5479   32.5160    5.7554 H         1 <0>        -0.0320 
     46 H16        -1.9822   24.2229   14.6213 H         1 <0>         0.0600 
     47 H17        -2.0008   24.8712   13.0222 H         1 <0>         0.0600 
     48 H18        -2.5289   27.6504   12.9746 H         1 <0>         0.0300 
     49 H19        -1.2616   28.3989   13.9377 H         1 <0>         0.0300 
     50 H20        -0.7957   26.1602   14.9646 H         1 <0>         0.0600 
     51 H21         0.2039   30.9367    7.9867 H         1 <0>         0.3800 
     52 H22         5.7011   28.7580    5.5209 H         1 <0>         0.3800 
     53 H23        -3.9960   24.1492   13.3274 H         1 <0>         0.2900 
     54 H24        -3.0233   27.6569   15.3143 H         1 <0>         0.4180 
@<TRIPOS>BOND
     1    1   26 1    
     2    1   31 1    
     3    1   32 1    
     4    1   33 1    
     5    2   26 1    
     6    2   34 1    
     7    2   35 1    
     8    2   36 1    
     9    3    4 ar   
    10    3    5 ar   
    11    3   37 1    
    12    4   16 ar   
    13    4   38 1    
    14    5   17 ar   
    15    5   39 1    
    16    6    8 ar   
    17    6   14 ar   
    18    6   40 1    
    19    7    9 ar   
    20    7   14 ar   
    21    7   41 1    
    22    8   15 ar   
    23    8   42 1    
    24    9   15 ar   
    25    9   43 1    
    26   10   18 ar   
    27   10   19 ar   
    28   10   44 1    
    29   11   22 ar   
    30   11   23 ar   
    31   11   45 1    
    32   12   21 1    
    33   12   26 1    
    34   12   46 1    
    35   12   47 1    
    36   13   21 1    
    37   13   28 1    
    38   13   48 1    
    39   13   49 1    
    40   14   24 1    
    41   15   28 1    
    42   16   20 ar   
    43   16   29 1    
    44   17   20 ar   
    45   17   30 1    
    46   18   22 ar   
    47   18   24 1    
    48   19   23 ar   
    49   19   25 1    
    50   20   25 1    
    51   21   27 1    
    52   21   50 1    
    53   24   51 1    
    54   25   52 1    
    55   26   53 1    
    56   27   54 1    
@<TRIPOS>SUBSTRUCTURE
     1 <0>         1 GROUP             0       ****    0 ROOT    
@<TRIPOS>MOLECULE
FAP_A1300_1H00
54   56    1
SMALL
USER_CHARGES


@<TRIPOS>ATOM
      1 C1         -3.8061   23.7371   15.6574 C.3       1 <0>         0.0900 
      2 C2         -5.8567   23.7186   14.3390 C.3       1 <0>         0.0900 
      3 C3          4.3602   24.1691    5.5291 C.ar      1 <0>        -0.1150 
      4 C4          4.5350   25.1073    4.4932 C.ar      1 <0>        -0.1150 
      5 C5          4.4023   24.5873    6.8743 C.ar      1 <0>        -0.1150 
      6 C6         -0.9308   29.5022    9.6822 C.ar      1 <0>        -0.1150 
      7 C7          1.1958   28.3830    9.9854 C.ar      1 <0>        -0.1150 
      8 C8         -1.4831   28.7453   10.7348 C.ar      1 <0>        -0.1150 
      9 C9          0.6462   27.6265   11.0354 C.ar      1 <0>        -0.1150 
     10 C10         2.9734   29.0329    7.4046 C.ar      1 <0>        -0.6890 
     11 C11         3.4299   31.3180    6.0971 C.ar      1 <0>         0.8740 
     12 C12        -4.2717   25.5845   14.0517 C.3       1 <0>         0.1500 
     13 C13        -2.5533   26.8177   12.6089 C.3       1 <0>         0.1400 
     14 C14         0.4069   29.3207    9.2748 C.ar      1 <0>         0.2000 
     15 C15        -0.7002   27.7780   11.4099 C.ar      1 <0>         0.0850 
     16 C16         4.7662   26.4607    4.8045 C.ar      1 <0>         0.2200 
     17 C17         4.6208   25.9426    7.1868 C.ar      1 <0>         0.2200 
     18 C18         2.0701   30.1165    7.4860 C.ar      1 <0>         0.8640 
     19 C19         4.1256   29.2172    6.6206 C.ar      1 <0>         0.8640 
     20 C20         4.8055   26.8828    6.1513 C.ar      1 <0>         0.2000 
     21 C21        -2.7951   26.0447   13.9135 C.3       1 <0>         0.2050 
     22 N1          2.2939   31.2451    6.7862 N.ar      1 <0>        -0.8390 
     23 N2          4.3639   30.3775    5.9886 N.ar      1 <0>        -0.8390 
     24 N3          0.8641   30.1181    8.2064 N.pl3     1 <0>        -0.7800 
     25 N4          5.0839   28.2210    6.4349 N.pl3     1 <0>        -0.7800 
     26 N5         -4.4423   24.1435   14.3864 N.4       1 <0>        -0.1000 
     27 O1         -2.4869   26.9182   14.9967 O.3       1 <0>        -0.6830 
     28 O2         -1.1518   26.9735   12.4327 O.3       1 <0>        -0.2850 
     29 F1          4.9439   27.3585    3.8042 F         1 <0>        -0.2200 
     30 F2          4.6649   26.3336    8.4822 F         1 <0>        -0.2200 
     31 H1         -4.2386   24.2876   16.4936 H         1 <0>         0.0600 
     32 H2         -2.7307   23.9096   15.6453 H         1 <0>         0.0600 
     33 H3         -3.9587   22.6714   15.8335 H         1 <0>         0.0600 
     34 H4         -6.3953   24.1181   15.1946 H         1 <0>         0.0600 
     35 H5         -6.3528   24.0515   13.4254 H         1 <0>         0.0600 
     36 H6         -5.9278   22.6306   14.3704 H         1 <0>         0.0600 
     37 H7          4.1807   23.1305    5.2918 H         1 <0>         0.1150 
     38 H8          4.4965   24.7920    3.4593 H         1 <0>         0.1150 
     39 H9          4.2525   23.8703    7.6678 H         1 <0>         0.1150 
     40 H10        -1.5563   30.2249    9.1791 H         1 <0>         0.1150 
     41 H11         2.2420   28.2335    9.7888 H         1 <0>         0.1150 
     42 H12        -2.5129   28.9303   10.9969 H         1 <0>         0.1150 
     43 H13         1.2724   26.9209   11.5634 H         1 <0>         0.1150 
     44 H14         2.8043   28.0870    7.8797 H         1 <0>         0.1970 
     45 H15         3.6078   32.2322    5.5544 H         1 <0>        -0.0320 
     46 H16        -4.7929   25.7603   13.1104 H         1 <0>         0.0600 
     47 H17        -4.7954   26.1970   14.7857 H         1 <0>         0.0600 
     48 H18        -2.9351   26.2486   11.7596 H         1 <0>         0.0300 
     49 H19        -3.0989   27.7533   12.6394 H         1 <0>         0.0300 
     50 H20        -2.1198   25.1888   13.9263 H         1 <0>         0.0600 
     51 H21         0.2828   30.9143    7.9923 H         1 <0>         0.3800 
     52 H22         5.8138   28.5631    5.8232 H         1 <0>         0.3800 
     53 H23        -3.9960   23.5970   13.6377 H         1 <0>         0.2900 
     54 H24        -2.8359   27.7972   14.7861 H         1 <0>         0.4180 
@<TRIPOS>BOND
     1    1   26 1    
     2    1   31 1    
     3    1   32 1    
     4    1   33 1    
     5    2   26 1    
     6    2   34 1    
     7    2   35 1    
     8    2   36 1    
     9    3    4 ar   
    10    3    5 ar   
    11    3   37 1    
    12    4   16 ar   
    13    4   38 1    
    14    5   17 ar   
    15    5   39 1    
    16    6    8 ar   
    17    6   14 ar   
    18    6   40 1    
    19    7    9 ar   
    20    7   14 ar   
    21    7   41 1    
    22    8   15 ar   
    23    8   42 1    
    24    9   15 ar   
    25    9   43 1    
    26   10   18 ar   
    27   10   19 ar   
    28   10   44 1    
    29   11   22 ar   
    30   11   23 ar   
    31   11   45 1    
    32   12   21 1    
    33   12   26 1    
    34   12   46 1    
    35   12   47 1    
    36   13   21 1    
    37   13   28 1    
    38   13   48 1    
    39   13   49 1    
    40   14   24 1    
    41   15   28 1    
    42   16   20 ar   
    43   16   29 1    
    44   17   20 ar   
    45   17   30 1    
    46   18   22 ar   
    47   18   24 1    
    48   19   23 ar   
    49   19   25 1    
    50   20   25 1    
    51   21   27 1    
    52   21   50 1    
    53   24   51 1    
    54   25   52 1    
    55   26   53 1    
    56   27   54 1    
@<TRIPOS>SUBSTRUCTURE
     1 <0>         1 GROUP             0       ****    0 ROOT    
@<TRIPOS>MOLECULE
FAP_A1300_1H00
54   56    1
SMALL
USER_CHARGES


@<TRIPOS>ATOM
      1 C1         -3.8045   23.7081   15.6537 C.3       1 <0>         0.0900 
      2 C2         -5.8559   23.7017   14.3393 C.3       1 <0>         0.0900 
      3 C3          4.4042   24.4301    5.3458 C.ar      1 <0>        -0.1150 
      4 C4          4.4043   24.7979    6.7058 C.ar      1 <0>        -0.1150 
      5 C5          4.5840   25.4114    4.3526 C.ar      1 <0>        -0.1150 
      6 C6         -1.0920   29.5360    9.6973 C.ar      1 <0>        -0.1150 
      7 C7          1.0699   28.4779    9.9736 C.ar      1 <0>        -0.1150 
      8 C8         -1.5955   28.7997   10.7862 C.ar      1 <0>        -0.1150 
      9 C9          0.5693   27.7402   11.0594 C.ar      1 <0>        -0.1150 
     10 C10         2.8048   29.1441    7.3586 C.ar      1 <0>        -0.6890 
     11 C11         3.2046   31.5120    6.1677 C.ar      1 <0>         0.8740 
     12 C12        -4.2734   25.5658   14.0624 C.3       1 <0>         0.1500 
     13 C13        -2.5763   26.8217   12.6412 C.3       1 <0>         0.1400 
     14 C14         0.2351   29.3646    9.2550 C.ar      1 <0>         0.2000 
     15 C15        -0.7719   27.8657   11.4595 C.ar      1 <0>         0.0850 
     16 C16         4.5743   26.1459    7.0762 C.ar      1 <0>         0.2200 
     17 C17         4.7687   26.7577    4.7211 C.ar      1 <0>         0.2200 
     18 C18         1.8520   30.1784    7.4416 C.ar      1 <0>         0.8640 
     19 C19         3.9684   29.4169    6.6202 C.ar      1 <0>         0.8640 
     20 C20         4.7525   27.1310    6.0819 C.ar      1 <0>         0.2000 
     21 C21        -2.8014   26.0370   13.9378 C.3       1 <0>         0.2050 
     22 N1          2.0402   31.3407    6.7862 N.ar      1 <0>        -0.8390 
     23 N2          4.1827   30.6177    6.0551 N.ar      1 <0>        -0.8390 
     24 N3          0.6375   30.1183    8.1380 N.pl3     1 <0>        -0.7800 
     25 N4          4.9666   28.4689    6.4193 N.pl3     1 <0>        -0.7800 
     26 N5         -4.4412   24.1233   14.3862 N.4       1 <0>        -0.1000 
     27 O1         -2.5156   26.9182   15.0201 O.3       1 <0>        -0.6830 
     28 O2         -1.1851   27.0686   12.5016 O.3       1 <0>        -0.2850 
     29 F1          4.5747   26.4865    8.3862 F         1 <0>        -0.2200 
     30 F2          4.9516   27.6976    3.7627 F         1 <0>        -0.2200 
     31 H1         -4.2364   24.2537   16.4933 H         1 <0>         0.0600 
     32 H2         -2.7288   23.8786   15.6400 H         1 <0>         0.0600 
     33 H3         -3.9585   22.6412   15.8238 H         1 <0>         0.0600 
     34 H4         -6.3962   24.1182   15.1861 H         1 <0>         0.0600 
     35 H5         -6.3425   24.0256   13.4183 H         1 <0>         0.0600 
     36 H6         -5.9333   22.6154   14.3855 H         1 <0>         0.0600 
     37 H7          4.2591   23.3977    5.0640 H         1 <0>         0.1150 
     38 H8          4.2570   24.0460    7.4663 H         1 <0>         0.1150 
     39 H9          4.5823   25.1317    3.3075 H         1 <0>         0.1150 
     40 H10        -1.7491   30.2273    9.1893 H         1 <0>         0.1150 
     41 H11         2.1108   28.3472    9.7389 H         1 <0>         0.1150 
     42 H12        -2.6208   28.9702   11.0740 H         1 <0>         0.1150 
     43 H13         1.2240   27.0606   11.5853 H         1 <0>         0.1150 
     44 H14         2.6663   28.1755    7.8020 H         1 <0>         0.1970 
     45 H15         3.3640   32.4800    5.7114 H         1 <0>        -0.0320 
     46 H16        -4.7927   25.7458   13.1211 H         1 <0>         0.0600 
     47 H17        -4.7962   26.1735   14.8001 H         1 <0>         0.0600 
     48 H18        -2.9057   26.2323   11.7841 H         1 <0>         0.0300 
     49 H19        -3.1838   27.7187   12.6629 H         1 <0>         0.0300 
     50 H20        -2.1119   25.1928   13.9518 H         1 <0>         0.0600 
     51 H21         0.0305   30.8938    7.9191 H         1 <0>         0.3800 
     52 H22         5.6957   28.8643    5.8406 H         1 <0>         0.3800 
     53 H23        -3.9953   23.5818   13.6338 H         1 <0>         0.2900 
     54 H24        -2.8494   27.7980   14.7861 H         1 <0>         0.4180 
@<TRIPOS>BOND
     1    1   26 1    
     2    1   31 1    
     3    1   32 1    
     4    1   33 1    
     5    2   26 1    
     6    2   34 1    
     7    2   35 1    
     8    2   36 1    
     9    3    4 ar   
    10    3    5 ar   
    11    3   37 1    
    12    4   16 ar   
    13    4   38 1    
    14    5   17 ar   
    15    5   39 1    
    16    6    8 ar   
    17    6   14 ar   
    18    6   40 1    
    19    7    9 ar   
    20    7   14 ar   
    21    7   41 1    
    22    8   15 ar   
    23    8   42 1    
    24    9   15 ar   
    25    9   43 1    
    26   10   18 ar   
    27   10   19 ar   
    28   10   44 1    
    29   11   22 ar   
    30   11   23 ar   
    31   11   45 1    
    32   12   21 1    
    33   12   26 1    
    34   12   46 1    
    35   12   47 1    
    36   13   21 1    
    37   13   28 1    
    38   13   48 1    
    39   13   49 1    
    40   14   24 1    
    41   15   28 1    
    42   16   20 ar   
    43   16   29 1    
    44   17   20 ar   
    45   17   30 1    
    46   18   22 ar   
    47   18   24 1    
    48   19   23 ar   
    49   19   25 1    
    50   20   25 1    
    51   21   27 1    
    52   21   50 1    
    53   24   51 1    
    54   25   52 1    
    55   26   53 1    
    56   27   54 1    
@<TRIPOS>SUBSTRUCTURE
     1 <0>         1 GROUP             0       ****    0 ROOT    
@<TRIPOS>MOLECULE
FAP_A1300_1H00
54   56    1
SMALL
USER_CHARGES


@<TRIPOS>ATOM
      1 C1         -3.8851   23.4701   15.3446 C.3       1 <0>         0.0900 
      2 C2         -5.7178   24.3907   13.9914 C.3       1 <0>         0.0900 
      3 C3          4.4145   24.4577    7.3725 C.ar      1 <0>        -0.1150 
      4 C4          4.4845   25.4330    8.3862 C.ar      1 <0>        -0.1150 
      5 C5          4.5204   24.8395    6.0210 C.ar      1 <0>        -0.1150 
      6 C6         -1.1422   29.4353    9.7378 C.ar      1 <0>        -0.1150 
      7 C7          1.0794   28.5153    9.9880 C.ar      1 <0>        -0.1150 
      8 C8         -1.5953   28.6317   10.8024 C.ar      1 <0>        -0.1150 
      9 C9          0.6288   27.7074   11.0460 C.ar      1 <0>        -0.1150 
     10 C10         2.7135   29.2605    7.3778 C.ar      1 <0>        -0.6890 
     11 C11         3.0572   31.5824    6.1222 C.ar      1 <0>         0.8740 
     12 C12        -3.8901   25.8925   14.7839 C.3       1 <0>         0.1500 
     13 C13        -2.4167   26.7494   12.8696 C.3       1 <0>         0.1400 
     14 C14         0.1920   29.3670    9.2903 C.ar      1 <0>         0.2000 
     15 C15        -0.7152   27.7321   11.4543 C.ar      1 <0>         0.0850 
     16 C16         4.6531   26.7888    8.0502 C.ar      1 <0>         0.2200 
     17 C17         4.6742   26.1972    5.6814 C.ar      1 <0>         0.2200 
     18 C18         1.7479   30.2762    7.4665 C.ar      1 <0>         0.8640 
     19 C19         3.8530   29.5093    6.5966 C.ar      1 <0>         0.8640 
     20 C20         4.7193   27.1778    6.6933 C.ar      1 <0>         0.2000 
     21 C21        -2.4530   26.2516   14.3275 C.3       1 <0>         0.2050 
     22 N1          1.9128   31.4280    6.7861 N.ar      1 <0>        -0.8390 
     23 N2          4.0333   30.6905    5.9866 N.ar      1 <0>        -0.8390 
     24 N3          0.5501   30.1743    8.1924 N.pl3     1 <0>        -0.7800 
     25 N4          4.8046   28.5255    6.3315 N.pl3     1 <0>        -0.7800 
     26 N5         -4.2946   24.5182   14.3862 N.4       1 <0>        -0.1000 
     27 O1         -1.9954   27.3180   15.1404 O.3       1 <0>        -0.6830 
     28 O2         -1.0558   26.8724   12.4776 O.3       1 <0>        -0.2850 
     29 F1          4.7297   27.7189    9.0325 F         1 <0>        -0.2200 
     30 F2          4.7448   26.5632    4.3785 F         1 <0>        -0.2200 
     31 H1         -4.4072   23.5805   16.2956 H         1 <0>         0.0600 
     32 H2         -2.8114   23.5078   15.5270 H         1 <0>         0.0600 
     33 H3         -4.1132   22.4806   14.9442 H         1 <0>         0.0600 
     34 H4         -6.3903   24.5181   14.8322 H         1 <0>         0.0600 
     35 H5         -5.9860   25.1125   13.2182 H         1 <0>         0.0600 
     36 H6         -5.9123   23.3972   13.5861 H         1 <0>         0.0600 
     37 H7          4.2737   23.4177    7.6275 H         1 <0>         0.1150 
     38 H8          4.4049   25.1498    9.4258 H         1 <0>         0.1150 
     39 H9          4.4665   24.0938    5.2412 H         1 <0>         0.1150 
     40 H10        -1.8440   30.0959    9.2497 H         1 <0>         0.1150 
     41 H11         2.1281   28.4600    9.7613 H         1 <0>         0.1150 
     42 H12        -2.6332   28.7275   11.0757 H         1 <0>         0.1150 
     43 H13         1.3291   27.0596   11.5542 H         1 <0>         0.1150 
     44 H14         2.5480   28.2949    7.8133 H         1 <0>         0.1970 
     45 H15         3.1975   32.5180    5.6058 H         1 <0>        -0.0320 
     46 H16        -4.5845   26.6274   14.3730 H         1 <0>         0.0600 
     47 H17        -3.9839   25.9791   15.8678 H         1 <0>         0.0600 
     48 H18        -2.8941   26.0237   12.2096 H         1 <0>         0.0300 
     49 H19        -2.9823   27.6737   12.7861 H         1 <0>         0.0300 
     50 H20        -1.7796   25.4050   14.4631 H         1 <0>         0.0600 
     51 H21        -0.0927   30.9259    7.9937 H         1 <0>         0.3800 
     52 H22         5.3935   28.7218    5.5351 H         1 <0>         0.3800 
     53 H23        -3.8142   24.2891   13.5181 H         1 <0>         0.2900 
     54 H24        -2.5151   28.0875   14.8725 H         1 <0>         0.4180 
@<TRIPOS>BOND
     1    1   26 1    
     2    1   31 1    
     3    1   32 1    
     4    1   33 1    
     5    2   26 1    
     6    2   34 1    
     7    2   35 1    
     8    2   36 1    
     9    3    4 ar   
    10    3    5 ar   
    11    3   37 1    
    12    4   16 ar   
    13    4   38 1    
    14    5   17 ar   
    15    5   39 1    
    16    6    8 ar   
    17    6   14 ar   
    18    6   40 1    
    19    7    9 ar   
    20    7   14 ar   
    21    7   41 1    
    22    8   15 ar   
    23    8   42 1    
    24    9   15 ar   
    25    9   43 1    
    26   10   18 ar   
    27   10   19 ar   
    28   10   44 1    
    29   11   22 ar   
    30   11   23 ar   
    31   11   45 1    
    32   12   21 1    
    33   12   26 1    
    34   12   46 1    
    35   12   47 1    
    36   13   21 1    
    37   13   28 1    
    38   13   48 1    
    39   13   49 1    
    40   14   24 1    
    41   15   28 1    
    42   16   20 ar   
    43   16   29 1    
    44   17   20 ar   
    45   17   30 1    
    46   18   22 ar   
    47   18   24 1    
    48   19   23 ar   
    49   19   25 1    
    50   20   25 1    
    51   21   27 1    
    52   21   50 1    
    53   24   51 1    
    54   25   52 1    
    55   26   53 1    
    56   27   54 1    
@<TRIPOS>SUBSTRUCTURE
     1 <0>         1 GROUP             0       ****    0 ROOT    
