@<TRIPOS>MOLECULE
DNC_302_3BWM
18   18    1
SMALL
USER_CHARGES


@<TRIPOS>ATOM
      1 C1         -6.9836   -8.3950  -15.3195 C.ar      1 <0>        -0.1150 
      2 C2         -9.0210   -7.0805  -15.2904 C.ar      1 <0>        -0.1150 
      3 C3         -7.8221   -7.4423  -15.9367 C.ar      1 <0>         0.0900 
      4 C4         -7.3128   -8.9766  -14.0717 C.ar      1 <0>         0.0900 
      5 C5         -9.3726   -7.6439  -14.0534 C.ar      1 <0>         0.1500 
      6 C6         -8.5245   -8.5855  -13.4336 C.ar      1 <0>         0.1500 
      7 N1         -7.4495   -6.8314  -17.2275 N.pl3     1 <0>         0.6500 
      8 N2         -6.3698   -9.9523  -13.4791 N.pl3     1 <0>         0.6500 
      9 O1        -10.5563   -7.2622  -13.4872 O.3       1 <0>        -0.5850 
     10 O2         -8.9061   -9.0807  -12.2196 O.3       1 <0>        -0.5850 
     11 O3         -6.4509   -7.2520  -17.8034 O.co2     1 <0>        -0.3700 
     12 O4         -8.1543   -5.9275  -17.6645 O.co2     1 <0>        -0.3700 
     13 O5         -5.1904   -9.8809  -13.8205 O.co2     1 <0>        -0.3700 
     14 O6         -6.7836  -10.7917  -12.6876 O.co2     1 <0>        -0.3700 
     15 H1         -6.0681   -8.6847  -15.8133 H         1 <0>         0.1150 
     16 H2         -9.6808   -6.3475  -15.7322 H         1 <0>         0.1150 
     17 H3        -10.6486   -7.2527  -12.5356 H         1 <0>         0.4350 
     18 H4         -9.6797   -8.6538  -11.8847 H         1 <0>         0.4350 
@<TRIPOS>BOND
     1    1    3 ar   
     2    1    4 ar   
     3    1   15 1    
     4    2    3 ar   
     5    2    5 ar   
     6    2   16 1    
     7    3    7 1    
     8    4    6 ar   
     9    4    8 1    
    10    5    6 ar   
    11    5    9 1    
    12    6   10 1    
    13    7   11 1    
    14    7   12 2    
    15    8   13 1    
    16    8   14 2    
    17    9   17 1    
    18   10   18 1    
@<TRIPOS>SUBSTRUCTURE
     1 <0>         1 GROUP             0       ****    0 ROOT    
@<TRIPOS>MOLECULE
DNC_302_3BWM
18   18    1
SMALL
USER_CHARGES


@<TRIPOS>ATOM
      1 C1         -8.8836   -7.8512  -15.1293 C.ar      1 <0>        -0.1150 
      2 C2         -7.7630   -9.3600  -13.5861 C.ar      1 <0>        -0.1150 
      3 C3         -8.9519   -8.7477  -14.0417 C.ar      1 <0>         0.0900 
      4 C4         -7.6590   -7.5738  -15.7791 C.ar      1 <0>         0.0900 
      5 C5         -6.5307   -9.0780  -14.2045 C.ar      1 <0>         0.1500 
      6 C6         -6.4688   -8.1754  -15.2878 C.ar      1 <0>         0.1500 
      7 N1        -10.2487   -9.0807  -13.4233 N.pl3     1 <0>         0.6500 
      8 N2         -7.6640   -6.6905  -16.9628 N.pl3     1 <0>         0.6500 
      9 O1         -5.3930   -9.6841  -13.7454 O.3       1 <0>        -0.5850 
     10 O2         -5.2394   -7.8807  -15.8118 O.3       1 <0>        -0.5850 
     11 O3        -10.2527   -9.8807  -12.4937 O.co2     1 <0>        -0.3700 
     12 O4        -11.2703   -8.5880  -13.8870 O.co2     1 <0>        -0.3700 
     13 O5         -8.5125   -5.8077  -17.0123 O.co2     1 <0>        -0.3700 
     14 O6         -6.8480   -6.8933  -17.8557 O.co2     1 <0>        -0.3700 
     15 H1         -9.7906   -7.3866  -15.4870 H         1 <0>         0.1150 
     16 H2         -7.7959  -10.0606  -12.7647 H         1 <0>         0.1150 
     17 H3         -5.5726  -10.3369  -13.0868 H         1 <0>         0.4350 
     18 H4         -5.0940   -6.9388  -15.8873 H         1 <0>         0.4350 
@<TRIPOS>BOND
     1    1    3 ar   
     2    1    4 ar   
     3    1   15 1    
     4    2    3 ar   
     5    2    5 ar   
     6    2   16 1    
     7    3    7 1    
     8    4    6 ar   
     9    4    8 1    
    10    5    6 ar   
    11    5    9 1    
    12    6   10 1    
    13    7   11 1    
    14    7   12 2    
    15    8   13 1    
    16    8   14 2    
    17    9   17 1    
    18   10   18 1    
@<TRIPOS>SUBSTRUCTURE
     1 <0>         1 GROUP             0       ****    0 ROOT    
@<TRIPOS>MOLECULE
DNC_302_3BWM
18   18    1
SMALL
USER_CHARGES


@<TRIPOS>ATOM
      1 C1         -6.1004   -9.2341  -14.7015 C.ar      1 <0>        -0.1150 
      2 C2         -5.3126  -10.3887  -16.6870 C.ar      1 <0>        -0.1150 
      3 C3         -5.8492   -9.2312  -16.0896 C.ar      1 <0>         0.0900 
      4 C4         -5.8191  -10.3710  -13.9066 C.ar      1 <0>         0.0900 
      5 C5         -5.0820  -11.5480  -15.9236 C.ar      1 <0>         0.1500 
      6 C6         -5.3196  -11.5459  -14.5321 C.ar      1 <0>         0.1500 
      7 N1         -6.1411   -8.0413  -16.9059 N.pl3     1 <0>         0.6500 
      8 N2         -6.0569  -10.2960  -12.4517 N.pl3     1 <0>         0.6500 
      9 O1         -4.6487  -12.6807  -16.5514 O.3       1 <0>        -0.5850 
     10 O2         -5.0487  -12.6807  -13.8137 O.3       1 <0>        -0.5850 
     11 O3         -5.4549   -7.8577  -17.9058 O.co2     1 <0>        -0.3700 
     12 O4         -7.0487   -7.3005  -16.5436 O.co2     1 <0>        -0.3700 
     13 O5         -6.9678   -9.5725  -12.0628 O.co2     1 <0>        -0.3700 
     14 O6         -5.3145  -10.9169  -11.6966 O.co2     1 <0>        -0.3700 
     15 H1         -6.4985   -8.3425  -14.2372 H         1 <0>         0.1150 
     16 H2         -5.1283  -10.4107  -17.7521 H         1 <0>         0.1150 
     17 H3         -5.1714  -13.4440  -16.2870 H         1 <0>         0.4350 
     18 H4         -5.3773  -13.5017  -14.1930 H         1 <0>         0.4350 
@<TRIPOS>BOND
     1    1    3 ar   
     2    1    4 ar   
     3    1   15 1    
     4    2    3 ar   
     5    2    5 ar   
     6    2   16 1    
     7    3    7 1    
     8    4    6 ar   
     9    4    8 1    
    10    5    6 ar   
    11    5    9 1    
    12    6   10 1    
    13    7   11 1    
    14    7   12 2    
    15    8   13 1    
    16    8   14 2    
    17    9   17 1    
    18   10   18 1    
@<TRIPOS>SUBSTRUCTURE
     1 <0>         1 GROUP             0       ****    0 ROOT    
@<TRIPOS>MOLECULE
DNC_302_3BWM
18   18    1
SMALL
USER_CHARGES


@<TRIPOS>ATOM
      1 C1         -5.2566   -9.6894  -17.1642 C.ar      1 <0>        -0.1150 
      2 C2         -6.1548  -10.1555  -14.9523 C.ar      1 <0>        -0.1150 
      3 C3         -6.0285   -9.2795  -16.0538 C.ar      1 <0>         0.0900 
      4 C4         -4.6485  -10.9645  -17.2096 C.ar      1 <0>         0.0900 
      5 C5         -5.5702  -11.4359  -14.9826 C.ar      1 <0>         0.1500 
      6 C6         -4.8127  -11.8397  -16.1044 C.ar      1 <0>         0.1500 
      7 N1         -6.7151   -7.9725  -16.0603 N.pl3     1 <0>         0.6500 
      8 N2         -3.9138  -11.3606  -18.4272 N.pl3     1 <0>         0.6500 
      9 O1         -5.7583  -12.2807  -13.9209 O.3       1 <0>        -0.5850 
     10 O2         -4.2488  -13.0803  -16.0963 O.3       1 <0>        -0.5850 
     11 O3         -6.7187   -7.3277  -17.1041 O.co2     1 <0>        -0.3700 
     12 O4         -7.2567   -7.5975  -15.0260 O.co2     1 <0>        -0.3700 
     13 O5         -3.2613  -10.4937  -19.0005 O.co2     1 <0>        -0.3700 
     14 O6         -4.0112  -12.5146  -18.8298 O.co2     1 <0>        -0.3700 
     15 H1         -5.1610   -9.0330  -18.0182 H         1 <0>         0.1150 
     16 H2         -6.7471   -9.8700  -14.0947 H         1 <0>         0.1150 
     17 H3         -5.8485  -13.2006  -14.1681 H         1 <0>         0.4350 
     18 H4         -4.9053  -13.7567  -15.8892 H         1 <0>         0.4350 
@<TRIPOS>BOND
     1    1    3 ar   
     2    1    4 ar   
     3    1   15 1    
     4    2    3 ar   
     5    2    5 ar   
     6    2   16 1    
     7    3    7 1    
     8    4    6 ar   
     9    4    8 1    
    10    5    6 ar   
    11    5    9 1    
    12    6   10 1    
    13    7   11 1    
    14    7   12 2    
    15    8   13 1    
    16    8   14 2    
    17    9   17 1    
    18   10   18 1    
@<TRIPOS>SUBSTRUCTURE
     1 <0>         1 GROUP             0       ****    0 ROOT    
@<TRIPOS>MOLECULE
DNC_302_3BWM
18   18    1
SMALL
USER_CHARGES


@<TRIPOS>ATOM
      1 C1         -6.5093   -9.0285  -15.2034 C.ar      1 <0>        -0.1150 
      2 C2         -5.1929  -10.4429  -16.6818 C.ar      1 <0>        -0.1150 
      3 C3         -5.8485   -9.2154  -16.4364 C.ar      1 <0>         0.0900 
      4 C4         -6.5116  -10.0431  -14.2224 C.ar      1 <0>         0.0900 
      5 C5         -5.2284  -11.4807  -15.7295 C.ar      1 <0>         0.1500 
      6 C6         -5.8709  -11.2790  -14.4877 C.ar      1 <0>         0.1500 
      7 N1         -5.8325   -8.1453  -17.4496 N.pl3     1 <0>         0.6500 
      8 N2         -7.2098   -9.8061  -12.9524 N.pl3     1 <0>         0.6500 
      9 O1         -4.6487  -12.6807  -16.0337 O.3       1 <0>        -0.5850 
     10 O2         -5.8912  -12.2807  -13.5563 O.3       1 <0>        -0.5850 
     11 O3         -4.9365   -8.1694  -18.2870 O.co2     1 <0>        -0.3700 
     12 O4         -6.7053   -7.2854  -17.4001 O.co2     1 <0>        -0.3700 
     13 O5         -6.5671   -9.9243  -11.9139 O.co2     1 <0>        -0.3700 
     14 O6         -8.3912   -9.4807  -13.0053 O.co2     1 <0>        -0.3700 
     15 H1         -7.0139   -8.0948  -14.9974 H         1 <0>         0.1150 
     16 H2         -4.6986  -10.6132  -17.6278 H         1 <0>         0.1150 
     17 H3         -5.2469  -13.4264  -15.8870 H         1 <0>         0.4350 
     18 H4         -5.8487  -13.1660  -13.9165 H         1 <0>         0.4350 
@<TRIPOS>BOND
     1    1    3 ar   
     2    1    4 ar   
     3    1   15 1    
     4    2    3 ar   
     5    2    5 ar   
     6    2   16 1    
     7    3    7 1    
     8    4    6 ar   
     9    4    8 1    
    10    5    6 ar   
    11    5    9 1    
    12    6   10 1    
    13    7   11 1    
    14    7   12 2    
    15    8   13 1    
    16    8   14 2    
    17    9   17 1    
    18   10   18 1    
@<TRIPOS>SUBSTRUCTURE
     1 <0>         1 GROUP             0       ****    0 ROOT    
@<TRIPOS>MOLECULE
DNC_302_3BWM
18   18    1
SMALL
USER_CHARGES


@<TRIPOS>ATOM
      1 C1         -6.1503   -9.1888  -13.9958 C.ar      1 <0>        -0.1150 
      2 C2         -5.8487  -10.0567  -16.2443 C.ar      1 <0>        -0.1150 
      3 C3         -6.2636   -9.0124  -15.3932 C.ar      1 <0>         0.0900 
      4 C4         -5.6601  -10.3956  -13.4397 C.ar      1 <0>         0.0900 
      5 C5         -5.4063  -11.2796  -15.7094 C.ar      1 <0>         0.1500 
      6 C6         -5.3232  -11.4650  -14.3134 C.ar      1 <0>         0.1500 
      7 N1         -6.8135   -7.7648  -15.9573 N.pl3     1 <0>         0.6500 
      8 N2         -5.5149  -10.5002  -11.9714 N.pl3     1 <0>         0.6500 
      9 O1         -5.0488  -12.2807  -16.5637 O.3       1 <0>        -0.5850 
     10 O2         -4.9113  -12.6799  -13.8387 O.3       1 <0>        -0.5850 
     11 O3         -7.4487   -7.0258  -15.2128 O.co2     1 <0>        -0.3700 
     12 O4         -6.6167   -7.5311  -17.1453 O.co2     1 <0>        -0.3700 
     13 O5         -4.6491  -11.2347  -11.5047 O.co2     1 <0>        -0.3700 
     14 O6         -6.2485   -9.8082  -11.2751 O.co2     1 <0>        -0.3700 
     15 H1         -6.4374   -8.3801  -13.3386 H         1 <0>         0.1150 
     16 H2         -5.9158   -9.9427  -17.3170 H         1 <0>         0.1150 
     17 H3         -5.3550  -13.1486  -16.2870 H         1 <0>         0.4350 
     18 H4         -5.3074  -13.4268  -14.2871 H         1 <0>         0.4350 
@<TRIPOS>BOND
     1    1    3 ar   
     2    1    4 ar   
     3    1   15 1    
     4    2    3 ar   
     5    2    5 ar   
     6    2   16 1    
     7    3    7 1    
     8    4    6 ar   
     9    4    8 1    
    10    5    6 ar   
    11    5    9 1    
    12    6   10 1    
    13    7   11 1    
    14    7   12 2    
    15    8   13 1    
    16    8   14 2    
    17    9   17 1    
    18   10   18 1    
@<TRIPOS>SUBSTRUCTURE
     1 <0>         1 GROUP             0       ****    0 ROOT    
@<TRIPOS>MOLECULE
DNC_302_3BWM
18   18    1
SMALL
USER_CHARGES


@<TRIPOS>ATOM
      1 C1         -5.0487   -9.7456  -17.4873 C.ar      1 <0>        -0.1150 
      2 C2         -6.0857   -9.9890  -15.3046 C.ar      1 <0>        -0.1150 
      3 C3         -5.8650   -9.2144  -16.4646 C.ar      1 <0>         0.0900 
      4 C4         -4.5019  -11.0448  -17.3957 C.ar      1 <0>         0.0900 
      5 C5         -5.5506  -11.2871  -15.1960 C.ar      1 <0>         0.1500 
      6 C6         -4.7608  -11.8219  -16.2375 C.ar      1 <0>         0.1500 
      7 N1         -6.4978   -7.8895  -16.6225 N.pl3     1 <0>         0.6500 
      8 N2         -3.6934  -11.5518  -18.5196 N.pl3     1 <0>         0.6500 
      9 O1         -5.8172  -12.0256  -14.0776 O.3       1 <0>        -0.5850 
     10 O2         -4.2487  -13.0807  -16.0967 O.3       1 <0>        -0.5850 
     11 O3         -6.2798   -7.2654  -17.6561 O.co2     1 <0>        -0.3700 
     12 O4         -7.2207   -7.4807  -15.7204 O.co2     1 <0>        -0.3700 
     13 O5         -2.9597  -10.7485  -19.0870 O.co2     1 <0>        -0.3700 
     14 O6         -3.8073  -12.7263  -18.8526 O.co2     1 <0>        -0.3700 
     15 H1         -4.8727   -9.1668  -18.3832 H         1 <0>         0.1150 
     16 H2         -6.7084   -9.6112  -14.5062 H         1 <0>         0.1150 
     17 H3         -5.8487  -12.9601  -14.2562 H         1 <0>         0.4350 
     18 H4         -4.9299  -13.7322  -15.8870 H         1 <0>         0.4350 
@<TRIPOS>BOND
     1    1    3 ar   
     2    1    4 ar   
     3    1   15 1    
     4    2    3 ar   
     5    2    5 ar   
     6    2   16 1    
     7    3    7 1    
     8    4    6 ar   
     9    4    8 1    
    10    5    6 ar   
    11    5    9 1    
    12    6   10 1    
    13    7   11 1    
    14    7   12 2    
    15    8   13 1    
    16    8   14 2    
    17    9   17 1    
    18   10   18 1    
@<TRIPOS>SUBSTRUCTURE
     1 <0>         1 GROUP             0       ****    0 ROOT    
@<TRIPOS>MOLECULE
DNC_302_3BWM
18   18    1
SMALL
USER_CHARGES


@<TRIPOS>ATOM
      1 C1         -9.1622   -7.8620  -14.9383 C.ar      1 <0>        -0.1150 
      2 C2         -8.3457   -9.2550  -13.1260 C.ar      1 <0>        -0.1150 
      3 C3         -9.4316   -8.7108  -13.8435 C.ar      1 <0>         0.0900 
      4 C4         -7.8385   -7.5960  -15.3565 C.ar      1 <0>         0.0900 
      5 C5         -7.0245   -8.9655  -13.5014 C.ar      1 <0>         0.1500 
      6 C6         -6.7592   -8.1418  -14.6124 C.ar      1 <0>         0.1500 
      7 N1        -10.8140   -9.0807  -13.4871 N.pl3     1 <0>         0.6500 
      8 N2         -7.6217   -6.7898  -16.5716 N.pl3     1 <0>         0.6500 
      9 O1         -5.9859   -9.4806  -12.7840 O.3       1 <0>        -0.5850 
     10 O2         -5.4487   -7.8807  -14.9154 O.3       1 <0>        -0.5850 
     11 O3        -10.9768   -9.8807  -12.5734 O.co2     1 <0>        -0.3700 
     12 O4        -11.7409   -8.6807  -14.1744 O.co2     1 <0>        -0.3700 
     13 O5         -8.4104   -5.8807  -16.8026 O.co2     1 <0>        -0.3700 
     14 O6         -6.6813   -7.0807  -17.3038 O.co2     1 <0>        -0.3700 
     15 H1         -9.9833   -7.4317  -15.4870 H         1 <0>         0.1150 
     16 H2         -8.5180   -9.9081  -12.2870 H         1 <0>         0.1150 
     17 H3         -5.1729   -9.1368  -13.1219 H         1 <0>         0.4350 
     18 H4         -5.3260   -7.0158  -15.3059 H         1 <0>         0.4350 
@<TRIPOS>BOND
     1    1    3 ar   
     2    1    4 ar   
     3    1   15 1    
     4    2    3 ar   
     5    2    5 ar   
     6    2   16 1    
     7    3    7 1    
     8    4    6 ar   
     9    4    8 1    
    10    5    6 ar   
    11    5    9 1    
    12    6   10 1    
    13    7   11 1    
    14    7   12 2    
    15    8   13 1    
    16    8   14 2    
    17    9   17 1    
    18   10   18 1    
@<TRIPOS>SUBSTRUCTURE
     1 <0>         1 GROUP             0       ****    0 ROOT    
