@<TRIPOS>MOLECULE
FLP_501_1R9O
30   31    1
SMALL
USER_CHARGES


@<TRIPOS>ATOM
      1 C1          9.3945   36.8584    0.5982 C.3       1 <0>        -0.1800 
      2 C2          5.8237   29.3250   -3.3674 C.ar      1 <0>        -0.1150 
      3 C3          5.2067   30.4791   -2.8538 C.ar      1 <0>        -0.1150 
      4 C4          7.2262   29.2626   -3.4403 C.ar      1 <0>        -0.1150 
      5 C5          5.9919   31.5680   -2.4267 C.ar      1 <0>        -0.1150 
      6 C6          8.0044   30.3543   -3.0083 C.ar      1 <0>        -0.1150 
      7 C7          8.4044   35.1239   -1.7468 C.ar      1 <0>        -0.1150 
      8 C8          7.7131   34.0038   -2.2405 C.ar      1 <0>        -0.1150 
      9 C9         10.1973   33.6877   -0.9879 C.ar      1 <0>        -0.1150 
     10 C10         7.4061   31.5323   -2.5043 C.ar      1 <0>         0.0000 
     11 C11         9.6413   34.9770   -1.0944 C.ar      1 <0>        -0.1150 
     12 C12         8.2175   32.6948   -2.0668 C.ar      1 <0>         0.0000 
     13 C13         9.4838   32.5602   -1.4403 C.ar      1 <0>         0.2200 
     14 C14        10.3150   36.1794   -0.4368 C.3       1 <0>        -0.0450 
     15 C15        10.7972   37.1717   -1.5116 C.2       1 <0>         0.7000 
     16 O1         11.6044   36.7530   -2.3662 O.co2     1 <0>        -0.8000 
     17 O2         10.4044   38.3530   -1.4403 O.co2     1 <0>        -0.8000 
     18 F1         10.0043   31.3403   -1.1787 F         1 <0>        -0.2200 
     19 H1          8.4278   37.1330    0.1758 H         1 <0>         0.0600 
     20 H2          9.2125   36.2070    1.4532 H         1 <0>         0.0600 
     21 H3          9.8463   37.7785    0.9597 H         1 <0>         0.0600 
     22 H4          5.2238   28.4887   -3.6955 H         1 <0>         0.1150 
     23 H5          4.1299   30.5302   -2.7844 H         1 <0>         0.1150 
     24 H6          7.7081   28.3738   -3.8195 H         1 <0>         0.1150 
     25 H7          5.4900   32.4354   -2.0241 H         1 <0>         0.1150 
     26 H8          9.0784   30.2727   -3.0445 H         1 <0>         0.1150 
     27 H9          7.9667   36.1041   -1.8403 H         1 <0>         0.1150 
     28 H10         6.7631   34.1638   -2.7280 H         1 <0>         0.1150 
     29 H11        11.1377   33.5416   -0.4774 H         1 <0>         0.1150 
     30 H12        11.2045   35.8368    0.0928 H         1 <0>         0.0600 
@<TRIPOS>BOND
     1    1   14 1    
     2    1   19 1    
     3    1   20 1    
     4    1   21 1    
     5    2    3 ar   
     6    2    4 ar   
     7    2   22 1    
     8    3    5 ar   
     9    3   23 1    
    10    4    6 ar   
    11    4   24 1    
    12    5   10 ar   
    13    5   25 1    
    14    6   10 ar   
    15    6   26 1    
    16    7    8 ar   
    17    7   11 ar   
    18    7   27 1    
    19    8   12 ar   
    20    8   28 1    
    21    9   11 ar   
    22    9   13 ar   
    23    9   29 1    
    24   10   12 1    
    25   11   14 1    
    26   12   13 ar   
    27   13   18 1    
    28   14   15 1    
    29   14   30 1    
    30   15   16 1    
    31   15   17 2    
@<TRIPOS>SUBSTRUCTURE
     1 <0>         1 GROUP             0       ****    0 ROOT    
@<TRIPOS>MOLECULE
FLP_501_1R9O
30   31    1
SMALL
USER_CHARGES


@<TRIPOS>ATOM
      1 C1          7.8170   32.2130   -5.1828 C.3       1 <0>        -0.1800 
      2 C2         -0.8594   32.3401   -1.5555 C.ar      1 <0>        -0.1150 
      3 C3         -0.2961   33.5986   -1.8401 C.ar      1 <0>        -0.1150 
      4 C4         -0.2031   31.1661   -1.9737 C.ar      1 <0>        -0.1150 
      5 C5          0.9316   33.6830   -2.5243 C.ar      1 <0>        -0.1150 
      6 C6          1.0111   31.2566   -2.6846 C.ar      1 <0>        -0.1150 
      7 C7          4.1054   32.4633   -5.7906 C.ar      1 <0>        -0.1150 
      8 C8          2.8947   32.3733   -5.0773 C.ar      1 <0>        -0.1150 
      9 C9          5.2679   33.0324   -3.7304 C.ar      1 <0>        -0.1150 
     10 C10         1.5926   32.5131   -2.9551 C.ar      1 <0>         0.0000 
     11 C11         5.3060   32.7876   -5.1210 C.ar      1 <0>        -0.1150 
     12 C12         2.8593   32.6045   -3.6891 C.ar      1 <0>         0.0000 
     13 C13         4.0561   32.9307   -3.0216 C.ar      1 <0>         0.2200 
     14 C14         6.6187   32.8736   -5.9026 C.3       1 <0>        -0.0450 
     15 C15         6.8771   34.3502   -6.2486 C.2       1 <0>         0.7000 
     16 O1          7.8766   34.9141   -5.7506 O.co2     1 <0>        -0.8000 
     17 O2          6.0741   34.8909   -7.0405 O.co2     1 <0>        -0.8000 
     18 F1          4.0469   33.1350   -1.6853 F         1 <0>        -0.2200 
     19 H1          8.0600   32.7040   -4.2416 H         1 <0>         0.0600 
     20 H2          7.6106   31.1664   -4.9665 H         1 <0>         0.0600 
     21 H3          8.7116   32.2464   -5.8048 H         1 <0>         0.0600 
     22 H4         -1.8041   32.2791   -1.0376 H         1 <0>         0.1150 
     23 H5         -0.8030   34.5012   -1.5311 H         1 <0>         0.1150 
     24 H6         -0.6406   30.2000   -1.7714 H         1 <0>         0.1150 
     25 H7          1.3640   34.6521   -2.7318 H         1 <0>         0.1150 
     26 H8          1.4987   30.3582   -3.0353 H         1 <0>         0.1150 
     27 H9          4.1084   32.2933   -6.8580 H         1 <0>         0.1150 
     28 H10         1.9826   32.1275   -5.6010 H         1 <0>         0.1150 
     29 H11         6.1628   33.2999   -3.1913 H         1 <0>         0.1150 
     30 H12         6.4852   32.3543   -6.8529 H         1 <0>         0.0600 
@<TRIPOS>BOND
     1    1   14 1    
     2    1   19 1    
     3    1   20 1    
     4    1   21 1    
     5    2    3 ar   
     6    2    4 ar   
     7    2   22 1    
     8    3    5 ar   
     9    3   23 1    
    10    4    6 ar   
    11    4   24 1    
    12    5   10 ar   
    13    5   25 1    
    14    6   10 ar   
    15    6   26 1    
    16    7    8 ar   
    17    7   11 ar   
    18    7   27 1    
    19    8   12 ar   
    20    8   28 1    
    21    9   11 ar   
    22    9   13 ar   
    23    9   29 1    
    24   10   12 1    
    25   11   14 1    
    26   12   13 ar   
    27   13   18 1    
    28   14   15 1    
    29   14   30 1    
    30   15   16 1    
    31   15   17 2    
@<TRIPOS>SUBSTRUCTURE
     1 <0>         1 GROUP             0       ****    0 ROOT    
@<TRIPOS>MOLECULE
FLP_501_1R9O
30   31    1
SMALL
USER_CHARGES


@<TRIPOS>ATOM
      1 C1          7.2223   34.8304   -5.4491 C.3       1 <0>        -0.1800 
      2 C2         -1.0653   32.8957   -1.4404 C.ar      1 <0>        -0.1150 
      3 C3         -0.5917   34.1150   -1.9597 C.ar      1 <0>        -0.1150 
      4 C4         -0.2290   31.7642   -1.4410 C.ar      1 <0>        -0.1150 
      5 C5          0.7135   34.1998   -2.4815 C.ar      1 <0>        -0.1150 
      6 C6          1.0798   31.8585   -1.9505 C.ar      1 <0>        -0.1150 
      7 C7          5.3632   32.9640   -2.6796 C.ar      1 <0>        -0.1150 
      8 C8          4.0453   32.8112   -2.2051 C.ar      1 <0>        -0.1150 
      9 C9          4.5016   33.7686   -4.8035 C.ar      1 <0>        -0.1150 
     10 C10         1.5666   33.0727   -2.4802 C.ar      1 <0>         0.0000 
     11 C11         5.6071   33.4562   -3.9794 C.ar      1 <0>        -0.1150 
     12 C12         2.9397   33.1662   -3.0088 C.ar      1 <0>         0.0000 
     13 C13         3.1853   33.6301   -4.3195 C.ar      1 <0>         0.2200 
     14 C14         7.0497   33.6694   -4.4490 C.3       1 <0>        -0.0450 
     15 C15         7.6031   32.3531   -5.0195 C.2       1 <0>         0.7000 
     16 O1          7.6571   31.3730   -4.2419 O.co2     1 <0>        -0.8000 
     17 O2          8.0037   32.3530   -6.2071 O.co2     1 <0>        -0.8000 
     18 F1          2.1465   33.9529   -5.1254 F         1 <0>        -0.2200 
     19 H1          6.7320   34.6405   -6.4043 H         1 <0>         0.0600 
     20 H2          6.8044   35.7405   -5.0403 H         1 <0>         0.0600 
     21 H3          8.2753   35.0219   -5.6610 H         1 <0>         0.0600 
     22 H4         -2.0660   32.8297   -1.0406 H         1 <0>         0.1150 
     23 H5         -1.2311   34.9854   -1.9620 H         1 <0>         0.1150 
     24 H6         -0.5914   30.8279   -1.0445 H         1 <0>         0.1150 
     25 H7          1.0630   35.1430   -2.8781 H         1 <0>         0.1150 
     26 H8          1.7186   30.9891   -1.9473 H         1 <0>         0.1150 
     27 H9          6.1914   32.7073   -2.0362 H         1 <0>         0.1150 
     28 H10         3.8869   32.4508   -1.1984 H         1 <0>         0.1150 
     29 H11         4.6445   34.1296   -5.8098 H         1 <0>         0.1150 
     30 H12         7.6485   33.9083   -3.5694 H         1 <0>         0.0600 
@<TRIPOS>BOND
     1    1   14 1    
     2    1   19 1    
     3    1   20 1    
     4    1   21 1    
     5    2    3 ar   
     6    2    4 ar   
     7    2   22 1    
     8    3    5 ar   
     9    3   23 1    
    10    4    6 ar   
    11    4   24 1    
    12    5   10 ar   
    13    5   25 1    
    14    6   10 ar   
    15    6   26 1    
    16    7    8 ar   
    17    7   11 ar   
    18    7   27 1    
    19    8   12 ar   
    20    8   28 1    
    21    9   11 ar   
    22    9   13 ar   
    23    9   29 1    
    24   10   12 1    
    25   11   14 1    
    26   12   13 ar   
    27   13   18 1    
    28   14   15 1    
    29   14   30 1    
    30   15   16 1    
    31   15   17 2    
@<TRIPOS>SUBSTRUCTURE
     1 <0>         1 GROUP             0       ****    0 ROOT    
