@<TRIPOS>MOLECULE
RIT_600_3NXU
96   99    1
SMALL
USER_CHARGES


@<TRIPOS>ATOM
      1 C1         35.2272  -26.5860   20.7417 C.3       1 <0>        -0.1800 
      2 C2         35.0829  -26.3930   23.2956 C.3       1 <0>        -0.1800 
      3 C3         32.5437  -18.8225   25.9485 C.3       1 <0>        -0.1800 
      4 C4         33.8180  -20.9457   26.3523 C.3       1 <0>        -0.1800 
      5 C5         35.4300  -19.1508   20.4874 C.3       1 <0>        -0.1303 
      6 C6         38.0097  -13.3791   33.6445 C.ar      1 <0>        -0.1150 
      7 C7         42.2301  -20.2287   30.1730 C.ar      1 <0>        -0.1150 
      8 C8         38.3581  -14.7391   33.5343 C.ar      1 <0>        -0.1150 
      9 C9         38.0817  -12.5404   32.5154 C.ar      1 <0>        -0.1150 
     10 C10        42.4204  -20.7638   28.8842 C.ar      1 <0>        -0.1150 
     11 C11        41.0280  -19.5665   30.4897 C.ar      1 <0>        -0.1150 
     12 C12        38.7786  -15.2601   32.2955 C.ar      1 <0>        -0.1150 
     13 C13        38.5010  -13.0611   31.2758 C.ar      1 <0>        -0.1150 
     14 C14        41.4091  -20.6374   27.9125 C.ar      1 <0>        -0.1150 
     15 C15        40.0162  -19.4393   29.5181 C.ar      1 <0>        -0.1150 
     16 C16        33.4359  -18.9982   32.2023 C.2       1 <0>         0.1862 
     17 C17        36.2715  -22.1619   21.6827 C.2       1 <0>        -0.3376 
     18 C18        33.5477  -21.2229   31.8293 C.2       1 <0>         0.1603 
     19 C19        39.2779  -14.9903   29.8172 C.3       1 <0>        -0.0050 
     20 C20        39.1159  -19.8287   27.1757 C.3       1 <0>        -0.0050 
     21 C21        34.0892  -20.8103   21.7363 C.3       1 <0>         0.0447 
     22 C22        33.9817  -17.7881   30.0006 C.3       1 <0>         0.3050 
     23 C23        39.0286  -17.3125   27.5138 C.2       1 <0>        -0.1150 
     24 C24        38.8492  -14.4232   31.1612 C.ar      1 <0>        -0.1150 
     25 C25        40.2038  -19.9741   28.2263 C.ar      1 <0>        -0.1150 
     26 C26        33.7804  -18.9842   30.8720 C.2       1 <0>        -0.2209 
     27 C27        34.9046  -22.0682   21.7562 C.2       1 <0>         0.1693 
     28 C28        35.1350  -24.3316   21.8553 C.2       1 <0>         0.1859 
     29 C29        34.7236  -25.7679   21.9398 C.3       1 <0>         0.0550 
     30 C30        33.9177  -19.4094   26.3320 C.3       1 <0>        -0.0600 
     31 C31        38.0904  -15.3685   28.8996 C.3       1 <0>         0.1400 
     32 C32        38.5063  -15.8712   27.4943 C.3       1 <0>         0.2050 
     33 C33        35.0645  -18.9189   25.3993 C.3       1 <0>         0.0625 
     34 C34        38.4329  -18.4587   27.1056 C.2       1 <0>         0.0513 
     35 C35        36.4434  -19.3692   25.9195 C.2       1 <0>         0.5000 
     36 C36        35.2926  -18.9430   22.9147 C.2       1 <0>         0.8137 
     37 C37        35.8446  -16.4502   29.2897 C.2       1 <0>         0.5159 
     38 N1         33.3072  -20.2810   32.7414 N.2       1 <0>        -0.4803 
     39 N2         34.2728  -23.3103   21.8579 N.2       1 <0>        -0.4803 
     40 N3         37.1972  -16.3276   29.5516 N.am      1 <0>        -0.4389 
     41 N4         34.8928  -19.5067   24.0685 N.am      1 <0>        -0.4886 
     42 N5         37.1400  -18.4156   26.5644 N.am      1 <0>        -0.3513 
     43 N6         34.9290  -19.6033   21.7886 N.am      1 <0>        -0.2219 
     44 O1         39.3923  -14.9483   26.8834 O.3       1 <0>        -0.6830 
     45 O2         36.8472  -20.5078   25.6831 O.2       1 <0>        -0.5000 
     46 O3         35.9438  -17.8957   22.8915 O.2       1 <0>        -0.6163 
     47 O4         35.1879  -15.7879   28.4858 O.2       1 <0>        -0.4970 
     48 O5         35.3584  -17.4402   30.0564 O.3       1 <0>        -0.3300 
     49 S1         36.8134  -23.8163   21.7327 S.3       1 <0>         0.0010 
     50 S2         33.9694  -20.6004   30.2432 S.3       1 <0>         0.0010 
     51 H1         34.8753  -26.1599   19.8017 H         1 <0>         0.0600 
     52 H2         36.3163  -26.6119   20.7063 H         1 <0>         0.0600 
     53 H3         34.8722  -27.6155   20.7913 H         1 <0>         0.0600 
     54 H4         34.6290  -25.8353   24.1153 H         1 <0>         0.0600 
     55 H5         34.7294  -27.4222   23.3604 H         1 <0>         0.0600 
     56 H6         36.1604  -26.4012   23.4587 H         1 <0>         0.0600 
     57 H7         32.2790  -19.0752   24.9214 H         1 <0>         0.0600 
     58 H8         31.7575  -19.2103   26.5969 H         1 <0>         0.0600 
     59 H9         32.5190  -17.7366   26.0407 H         1 <0>         0.0600 
     60 H10        33.6319  -21.3449   25.3548 H         1 <0>         0.0600 
     61 H11        34.7318  -21.4024   26.7269 H         1 <0>         0.0600 
     62 H12        33.0079  -21.2807   27.0007 H         1 <0>         0.0600 
     63 H13        36.4954  -19.3609   20.3920 H         1 <0>         0.0600 
     64 H14        34.9197  -19.6395   19.6568 H         1 <0>         0.0600 
     65 H15        35.2829  -18.0767   20.3638 H         1 <0>         0.0600 
     66 H16        37.6866  -12.9793   34.5944 H         1 <0>         0.1150 
     67 H17        43.0059  -20.3259   30.9181 H         1 <0>         0.1150 
     68 H18        38.3015  -15.3834   34.3993 H         1 <0>         0.1150 
     69 H19        37.8126  -11.4977   32.5990 H         1 <0>         0.1150 
     70 H20        43.3422  -21.2709   28.6399 H         1 <0>         0.1150 
     71 H21        40.8818  -19.1556   31.4777 H         1 <0>         0.1150 
     72 H22        39.0376  -16.3061   32.2176 H         1 <0>         0.1150 
     73 H23        38.5468  -12.4145   30.4116 H         1 <0>         0.1150 
     74 H24        41.5631  -21.0458   26.9244 H         1 <0>         0.1150 
     75 H25        39.0970  -18.9281   29.7648 H         1 <0>         0.1150 
     76 H26        33.2534  -18.1429   32.8364 H         1 <0>         0.0981 
     77 H27        36.9909  -21.3611   21.5988 H         1 <0>         0.2317 
     78 H28        33.4794  -22.2699   32.0852 H         1 <0>         0.1406 
     79 H29        39.9057  -15.8608   30.0088 H         1 <0>         0.0600 
     80 H30        39.9188  -14.2659   29.3134 H         1 <0>         0.0600 
     81 H31        38.3685  -20.6035   27.3518 H         1 <0>         0.0600 
     82 H32        39.5633  -20.0395   26.2045 H         1 <0>         0.0600 
     83 H33        33.4047  -20.7954   22.5858 H         1 <0>         0.0600 
     84 H34        33.4282  -20.8099   20.8697 H         1 <0>         0.0600 
     85 H35        33.6541  -17.9834   28.9784 H         1 <0>         0.0300 
     86 H36        33.3920  -16.9506   30.3734 H         1 <0>         0.0300 
     87 H37        40.0323  -17.3741   27.9068 H         1 <0>         0.1150 
     88 H38        33.6347  -25.7772   21.8787 H         1 <0>         0.0600 
     89 H39        34.1345  -19.0925   27.3539 H         1 <0>         0.0600 
     90 H40        37.5249  -14.4470   28.7483 H         1 <0>         0.0600 
     91 H41        37.6207  -15.8848   26.8581 H         1 <0>         0.0600 
     92 H42        35.0281  -17.8292   25.3343 H         1 <0>         0.0600 
     93 H43        37.5835  -16.9617   30.2369 H         1 <0>         0.3000 
     94 H44        34.4979  -20.4347   24.0290 H         1 <0>         0.2912 
     95 H45        36.7439  -17.4865   26.5251 H         1 <0>         0.3000 
     96 H46        39.9839  -14.6182   27.5461 H         1 <0>         0.4180 
@<TRIPOS>BOND
     1    1   29 1    
     2    1   51 1    
     3    1   52 1    
     4    1   53 1    
     5    2   29 1    
     6    2   54 1    
     7    2   55 1    
     8    2   56 1    
     9    3   30 1    
    10    3   57 1    
    11    3   58 1    
    12    3   59 1    
    13    4   30 1    
    14    4   60 1    
    15    4   61 1    
    16    4   62 1    
    17    5   43 1    
    18    5   63 1    
    19    5   64 1    
    20    5   65 1    
    21    6    8 ar   
    22    6    9 ar   
    23    6   66 1    
    24    7   10 ar   
    25    7   11 ar   
    26    7   67 1    
    27    8   12 ar   
    28    8   68 1    
    29    9   13 ar   
    30    9   69 1    
    31   10   14 ar   
    32   10   70 1    
    33   11   15 ar   
    34   11   71 1    
    35   12   24 ar   
    36   12   72 1    
    37   13   24 ar   
    38   13   73 1    
    39   14   25 ar   
    40   14   74 1    
    41   15   25 ar   
    42   15   75 1    
    43   16   26 2    
    44   16   38 1    
    45   16   76 1    
    46   17   27 2    
    47   17   49 1    
    48   17   77 1    
    49   18   38 2    
    50   18   50 1    
    51   18   78 1    
    52   19   24 1    
    53   19   31 1    
    54   19   79 1    
    55   19   80 1    
    56   20   25 1    
    57   20   34 1    
    58   20   81 1    
    59   20   82 1    
    60   21   27 1    
    61   21   43 1    
    62   21   83 1    
    63   21   84 1    
    64   22   26 1    
    65   22   48 1    
    66   22   85 1    
    67   22   86 1    
    68   23   32 1    
    69   23   34 2    
    70   23   87 1    
    71   26   50 1    
    72   27   39 1    
    73   28   29 1    
    74   28   39 2    
    75   28   49 1    
    76   29   88 1    
    77   30   33 1    
    78   30   89 1    
    79   31   32 1    
    80   31   40 1    
    81   31   90 1    
    82   32   44 1    
    83   32   91 1    
    84   33   35 1    
    85   33   41 1    
    86   33   92 1    
    87   34   42 1    
    88   35   42 am   BACKBONE|DICT|INTERRES
    89   35   45 2    
    90   36   41 am   BACKBONE|DICT|INTERRES
    91   36   43 am   BACKBONE|DICT|INTERRES
    92   36   46 2    
    93   37   40 am   BACKBONE|DICT|INTERRES
    94   37   47 2    
    95   37   48 1    
    96   40   93 1    
    97   41   94 1    
    98   42   95 1    
    99   44   96 1    
@<TRIPOS>SUBSTRUCTURE
     1 <0>         1 GROUP             0       ****    0 ROOT    
@<TRIPOS>MOLECULE
RIT_600_3NXU
96   99    1
SMALL
USER_CHARGES


@<TRIPOS>ATOM
      1 C1         36.6213   -7.9343   35.6919 C.3       1 <0>        -0.1800 
      2 C2         38.7483   -8.3270   34.3100 C.3       1 <0>        -0.1800 
      3 C3         32.8793  -16.8358   32.8519 C.3       1 <0>        -0.1800 
      4 C4         33.1289  -14.6660   31.6123 C.3       1 <0>        -0.1800 
      5 C5         38.5916  -13.8553   34.1906 C.3       1 <0>        -0.1303 
      6 C6         33.8227  -17.8393   21.7760 C.ar      1 <0>        -0.1150 
      7 C7         41.6348  -20.0205   29.0059 C.ar      1 <0>        -0.1150 
      8 C8         32.8234  -18.5060   22.5120 C.ar      1 <0>        -0.1150 
      9 C9         35.1535  -17.8479   22.2300 C.ar      1 <0>        -0.1150 
     10 C10        41.2927  -19.1749   30.0796 C.ar      1 <0>        -0.1150 
     11 C11        40.8981  -19.9625   27.8086 C.ar      1 <0>        -0.1150 
     12 C12        33.1558  -19.1977   23.6918 C.ar      1 <0>        -0.1150 
     13 C13        35.4868  -18.5349   23.4127 C.ar      1 <0>        -0.1150 
     14 C14        40.1986  -18.2893   29.9676 C.ar      1 <0>        -0.1150 
     15 C15        39.8289  -19.0535   27.6830 C.ar      1 <0>        -0.1150 
     16 C16        32.2233  -13.1651   26.4204 C.2       1 <0>         0.1862 
     17 C17        35.6409  -11.5384   32.6274 C.2       1 <0>        -0.3376 
     18 C18        33.4152  -11.4397   27.2563 C.2       1 <0>         0.1603 
     19 C19        34.8666  -19.9892   25.3945 C.3       1 <0>        -0.0050 
     20 C20        38.2579  -17.2830   28.6463 C.3       1 <0>        -0.0050 
     21 C21        36.2154  -13.2763   34.4298 C.3       1 <0>         0.0447 
     22 C22        32.4105  -15.1450   28.0299 C.3       1 <0>         0.3050 
     23 C23        36.5046  -18.9321   27.9192 C.2       1 <0>        -0.1150 
     24 C24        34.4902  -19.2149   24.1433 C.ar      1 <0>        -0.1150 
     25 C25        39.4537  -18.2230   28.7676 C.ar      1 <0>        -0.1150 
     26 C26        32.6968  -13.7607   27.5586 C.2       1 <0>        -0.2209 
     27 C27        36.1794  -11.8981   33.8385 C.2       1 <0>         0.1693 
     28 C28        36.6619   -9.6676   33.8574 C.2       1 <0>         0.1859 
     29 C29        37.2124   -8.3612   34.3411 C.3       1 <0>         0.0550 
     30 C30        33.5663  -16.1428   31.6699 C.3       1 <0>        -0.0600 
     31 C31        34.3020  -19.4341   26.7316 C.3       1 <0>         0.1400 
     32 C32        35.2185  -19.7417   27.9454 C.3       1 <0>         0.2050 
     33 C33        35.1085  -16.3353   31.7038 C.3       1 <0>         0.0625 
     34 C34        36.9140  -18.0018   28.8019 C.2       1 <0>         0.0513 
     35 C35        35.7721  -16.4397   30.3115 C.2       1 <0>         0.5000 
     36 C36        37.0024  -15.0344   32.7896 C.2       1 <0>         0.8137 
     37 C37        33.2077  -17.3320   27.5501 C.2       1 <0>         0.5159 
     38 N1         32.6335  -11.8400   26.2456 N.2       1 <0>        -0.4803 
     39 N2         36.7693  -10.8247   34.5212 N.2       1 <0>        -0.4803 
     40 N3         34.0237  -17.9967   26.6522 N.am      1 <0>        -0.4389 
     41 N4         35.7051  -15.3321   32.5952 N.am      1 <0>        -0.4886 
     42 N5         36.1396  -17.6771   29.9245 N.am      1 <0>        -0.3513 
     43 N6         37.2220  -14.1245   33.7706 N.am      1 <0>        -0.2219 
     44 O1         35.5432  -21.1128   27.9534 O.3       1 <0>        -0.6830 
     45 O2         35.9351  -15.4305   29.6255 O.2       1 <0>        -0.5000 
     46 O3         37.9200  -15.5993   32.1926 O.2       1 <0>        -0.6163 
     47 O4         32.6328  -17.8371   28.5141 O.2       1 <0>        -0.4970 
     48 O5         33.1541  -16.0355   27.2138 O.3       1 <0>        -0.3300 
     49 S1         35.8380   -9.8401   32.3113 S.3       1 <0>         0.0010 
     50 S2         33.6983  -12.6695   28.4792 S.3       1 <0>         0.0010 
     51 H1         35.5311   -7.9012   35.6523 H         1 <0>         0.0600 
     52 H2         36.9140   -8.6315   36.4754 H         1 <0>         0.0600 
     53 H3         36.9651   -6.9402   35.9782 H         1 <0>         0.0600 
     54 H4         39.1293   -8.5541   33.3128 H         1 <0>         0.0600 
     55 H5         39.1248   -7.3431   34.5890 H         1 <0>         0.0600 
     56 H6         39.1762   -9.0564   34.9969 H         1 <0>         0.0600 
     57 H7         33.2781  -16.4780   33.7968 H         1 <0>         0.0600 
     58 H8         31.8055  -16.6397   32.8599 H         1 <0>         0.0600 
     59 H9         33.0112  -17.9181   32.8056 H         1 <0>         0.0600 
     60 H10        33.2727  -14.1542   32.5669 H         1 <0>         0.0600 
     61 H11        33.7032  -14.1195   30.8685 H         1 <0>         0.0600 
     62 H12        32.0738  -14.5799   31.3566 H         1 <0>         0.0600 
     63 H13        39.2010  -13.5098   33.3544 H         1 <0>         0.0600 
     64 H14        38.6326  -13.0904   34.9679 H         1 <0>         0.0600 
     65 H15        39.0370  -14.7640   34.5981 H         1 <0>         0.0600 
     66 H16        33.5564  -17.3239   20.8634 H         1 <0>         0.1150 
     67 H17        42.4523  -20.7225   29.1061 H         1 <0>         0.1150 
     68 H18        31.8003  -18.4964   22.1642 H         1 <0>         0.1150 
     69 H19        35.9223  -17.3440   21.6651 H         1 <0>         0.1150 
     70 H20        41.8547  -19.2178   30.9971 H         1 <0>         0.1150 
     71 H21        41.1505  -20.6277   26.9987 H         1 <0>         0.1150 
     72 H22        32.3815  -19.7142   24.2439 H         1 <0>         0.1150 
     73 H23        36.5132  -18.5489   23.7444 H         1 <0>         0.1150 
     74 H24        39.9300  -17.6589   30.8040 H         1 <0>         0.1150 
     75 H25        39.2927  -19.0068   26.7460 H         1 <0>         0.1150 
     76 H26        31.5640  -13.6144   25.6906 H         1 <0>         0.0981 
     77 H27        35.1514  -12.1689   31.9001 H         1 <0>         0.2317 
     78 H28        33.8316  -10.4456   27.2782 H         1 <0>         0.1406 
     79 H29        35.9553  -20.0396   25.4296 H         1 <0>         0.0600 
     80 H30        34.5406  -21.0253   25.2721 H         1 <0>         0.0600 
     81 H31        38.2836  -16.7962   27.6706 H         1 <0>         0.0600 
     82 H32        38.3721  -16.4903   29.3892 H         1 <0>         0.0600 
     83 H33        35.2153  -13.7156   34.4190 H         1 <0>         0.0600 
     84 H34        36.4494  -13.2127   35.4942 H         1 <0>         0.0600 
     85 H35        32.6917  -15.2561   29.0783 H         1 <0>         0.0300 
     86 H36        31.3438  -15.3682   27.9576 H         1 <0>         0.0300 
     87 H37        37.1472  -19.1484   27.0796 H         1 <0>         0.1150 
     88 H38        36.8792   -7.6144   33.6257 H         1 <0>         0.0600 
     89 H39        33.1854  -16.6350   30.7747 H         1 <0>         0.0600 
     90 H40        33.3386  -19.9246   26.8958 H         1 <0>         0.0600 
     91 H41        34.6710  -19.5381   28.8659 H         1 <0>         0.0600 
     92 H42        35.3008  -17.2912   32.1960 H         1 <0>         0.0600 
     93 H43        34.4250  -17.4457   25.9071 H         1 <0>         0.3000 
     94 H44        35.0417  -14.8494   33.1805 H         1 <0>         0.2912 
     95 H45        35.7313  -18.4487   30.4302 H         1 <0>         0.3000 
     96 H46        36.2088  -21.2564   28.6110 H         1 <0>         0.4180 
@<TRIPOS>BOND
     1    1   29 1    
     2    1   51 1    
     3    1   52 1    
     4    1   53 1    
     5    2   29 1    
     6    2   54 1    
     7    2   55 1    
     8    2   56 1    
     9    3   30 1    
    10    3   57 1    
    11    3   58 1    
    12    3   59 1    
    13    4   30 1    
    14    4   60 1    
    15    4   61 1    
    16    4   62 1    
    17    5   43 1    
    18    5   63 1    
    19    5   64 1    
    20    5   65 1    
    21    6    8 ar   
    22    6    9 ar   
    23    6   66 1    
    24    7   10 ar   
    25    7   11 ar   
    26    7   67 1    
    27    8   12 ar   
    28    8   68 1    
    29    9   13 ar   
    30    9   69 1    
    31   10   14 ar   
    32   10   70 1    
    33   11   15 ar   
    34   11   71 1    
    35   12   24 ar   
    36   12   72 1    
    37   13   24 ar   
    38   13   73 1    
    39   14   25 ar   
    40   14   74 1    
    41   15   25 ar   
    42   15   75 1    
    43   16   26 2    
    44   16   38 1    
    45   16   76 1    
    46   17   27 2    
    47   17   49 1    
    48   17   77 1    
    49   18   38 2    
    50   18   50 1    
    51   18   78 1    
    52   19   24 1    
    53   19   31 1    
    54   19   79 1    
    55   19   80 1    
    56   20   25 1    
    57   20   34 1    
    58   20   81 1    
    59   20   82 1    
    60   21   27 1    
    61   21   43 1    
    62   21   83 1    
    63   21   84 1    
    64   22   26 1    
    65   22   48 1    
    66   22   85 1    
    67   22   86 1    
    68   23   32 1    
    69   23   34 2    
    70   23   87 1    
    71   26   50 1    
    72   27   39 1    
    73   28   29 1    
    74   28   39 2    
    75   28   49 1    
    76   29   88 1    
    77   30   33 1    
    78   30   89 1    
    79   31   32 1    
    80   31   40 1    
    81   31   90 1    
    82   32   44 1    
    83   32   91 1    
    84   33   35 1    
    85   33   41 1    
    86   33   92 1    
    87   34   42 1    
    88   35   42 am   BACKBONE|DICT|INTERRES
    89   35   45 2    
    90   36   41 am   BACKBONE|DICT|INTERRES
    91   36   43 am   BACKBONE|DICT|INTERRES
    92   36   46 2    
    93   37   40 am   BACKBONE|DICT|INTERRES
    94   37   47 2    
    95   37   48 1    
    96   40   93 1    
    97   41   94 1    
    98   42   95 1    
    99   44   96 1    
@<TRIPOS>SUBSTRUCTURE
     1 <0>         1 GROUP             0       ****    0 ROOT    
@<TRIPOS>MOLECULE
RIT_600_3NXU
96   99    1
SMALL
USER_CHARGES


@<TRIPOS>ATOM
      1 C1         36.5960   -7.9625   35.4008 C.3       1 <0>        -0.1800 
      2 C2         38.8649   -8.4551   34.3120 C.3       1 <0>        -0.1800 
      3 C3         32.9314  -17.2219   30.3082 C.3       1 <0>        -0.1800 
      4 C4         32.9030  -16.1741   32.5920 C.3       1 <0>        -0.1800 
      5 C5         38.5938  -13.8091   33.8252 C.3       1 <0>        -0.1303 
      6 C6         34.1058  -17.6135   21.4399 C.ar      1 <0>        -0.1150 
      7 C7         41.6257  -20.2384   29.0327 C.ar      1 <0>        -0.1150 
      8 C8         33.0322  -18.1220   22.1972 C.ar      1 <0>        -0.1150 
      9 C9         35.4292  -17.8125   21.8792 C.ar      1 <0>        -0.1150 
     10 C10        41.2201  -19.3696   30.0621 C.ar      1 <0>        -0.1150 
     11 C11        40.9550  -20.2109   27.7964 C.ar      1 <0>        -0.1150 
     12 C12        33.2773  -18.8452   23.3788 C.ar      1 <0>        -0.1150 
     13 C13        35.6751  -18.5275   23.0672 C.ar      1 <0>        -0.1150 
     14 C14        40.1502  -18.4747   29.8656 C.ar      1 <0>        -0.1150 
     15 C15        39.8932  -19.3086   27.5907 C.ar      1 <0>        -0.1150 
     16 C16        32.2330  -12.6147   26.5971 C.2       1 <0>         0.1862 
     17 C17        35.9089  -11.5200   32.2078 C.2       1 <0>        -0.3376 
     18 C18        33.6184  -11.6372   28.0871 C.2       1 <0>         0.1603 
     19 C19        34.8748  -19.8728   25.0705 C.3       1 <0>        -0.0050 
     20 C20        38.3396  -17.4640   28.3900 C.3       1 <0>        -0.0050 
     21 C21        36.2028  -13.2537   34.0742 C.3       1 <0>         0.0447 
     22 C22        32.0333  -15.1081   27.1763 C.3       1 <0>         0.3050 
     23 C23        36.5068  -19.0131   27.6413 C.2       1 <0>        -0.1150 
     24 C24        34.6004  -19.0521   23.8195 C.ar      1 <0>        -0.1150 
     25 C25        39.4825  -18.4377   28.6232 C.ar      1 <0>        -0.1150 
     26 C26        32.5490  -13.7168   27.3518 C.2       1 <0>        -0.2209 
     27 C27        36.2444  -11.8784   33.4886 C.2       1 <0>         0.1693 
     28 C28        36.8008   -9.6748   33.5659 C.2       1 <0>         0.1859 
     29 C29        37.3422   -8.4025   34.1345 C.3       1 <0>         0.0550 
     30 C30        33.6031  -16.1716   31.2193 C.3       1 <0>        -0.0600 
     31 C31        34.2995  -19.3183   26.4060 C.3       1 <0>         0.1400 
     32 C32        35.1490  -19.7021   27.6423 C.3       1 <0>         0.2050 
     33 C33        35.1455  -16.3478   31.3500 C.3       1 <0>         0.0625 
     34 C34        36.9661  -18.1156   28.5302 C.2       1 <0>         0.0513 
     35 C35        35.8749  -16.4976   29.9975 C.2       1 <0>         0.5000 
     36 C36        36.9982  -15.0397   32.4790 C.2       1 <0>         0.8137 
     37 C37        32.9025  -17.2305   26.5607 C.2       1 <0>         0.5159 
     38 N1         32.8728  -11.4382   26.9968 N.2       1 <0>        -0.4803 
     39 N2         36.7525  -10.8218   34.2477 N.2       1 <0>        -0.4803 
     40 N3         34.1242  -17.8607   26.3901 N.am      1 <0>        -0.4389 
     41 N4         35.7011  -15.2800   32.1958 N.am      1 <0>        -0.4886 
     42 N5         36.2091  -17.7515   29.6475 N.am      1 <0>        -0.3513 
     43 N6         37.2163  -14.1087   33.4351 N.am      1 <0>        -0.2219 
     44 O1         35.3275  -21.1005   27.7031 O.3       1 <0>        -0.6830 
     45 O2         36.1018  -15.5090   29.2963 O.2       1 <0>        -0.5000 
     46 O3         37.9188  -15.6760   31.9614 O.2       1 <0>        -0.6163 
     47 O4         31.7983  -17.7710   26.5966 O.2       1 <0>        -0.4970 
     48 O5         33.1157  -15.9183   26.7425 O.3       1 <0>        -0.3300 
     49 S1         36.2328   -9.8386   31.9061 S.3       1 <0>         0.0010 
     50 S2         33.6395  -13.2990   28.6499 S.3       1 <0>         0.0010 
     51 H1         35.5281   -7.8518   35.2103 H         1 <0>         0.0600 
     52 H2         36.7190   -8.6913   36.1997 H         1 <0>         0.0600 
     53 H3         36.9663   -7.0038   35.7650 H         1 <0>         0.0600 
     54 H4         39.3672   -8.6415   33.3622 H         1 <0>         0.0600 
     55 H5         39.2505   -7.5173   34.7119 H         1 <0>         0.0600 
     56 H6         39.1470   -9.2507   34.9967 H         1 <0>         0.0600 
     57 H7         33.0524  -18.2309   30.7081 H         1 <0>         0.0600 
     58 H8         31.8582  -17.0380   30.1982 H         1 <0>         0.0600 
     59 H9         33.3423  -17.2125   29.3028 H         1 <0>         0.0600 
     60 H10        33.0725  -17.1132   33.1217 H         1 <0>         0.0600 
     61 H11        33.2513  -15.3666   33.2340 H         1 <0>         0.0600 
     62 H12        31.8265  -16.0511   32.4803 H         1 <0>         0.0600 
     63 H13        39.1625  -13.4315   32.9724 H         1 <0>         0.0600 
     64 H14        38.6332  -13.0505   34.6051 H         1 <0>         0.0600 
     65 H15        39.0905  -14.7045   34.1965 H         1 <0>         0.0600 
     66 H16        33.9101  -17.0761   20.5240 H         1 <0>         0.1150 
     67 H17        42.4435  -20.9253   29.1919 H         1 <0>         0.1150 
     68 H18        32.0170  -17.9724   21.8627 H         1 <0>         0.1150 
     69 H19        36.2571  -17.4309   21.2992 H         1 <0>         0.1150 
     70 H20        41.7451  -19.3889   31.0007 H         1 <0>         0.1150 
     71 H21        41.2585  -20.8759   27.0007 H         1 <0>         0.1150 
     72 H22        32.4482  -19.2422   23.9473 H         1 <0>         0.1150 
     73 H23        36.6940  -18.6870   23.3892 H         1 <0>         0.1150 
     74 H24        39.8496  -17.8125   30.6658 H         1 <0>         0.1150 
     75 H25        39.4057  -19.2824   26.6284 H         1 <0>         0.1150 
     76 H26        31.5670  -12.5795   25.7471 H         1 <0>         0.0981 
     77 H27        35.5207  -12.1465   31.4183 H         1 <0>         0.2317 
     78 H28        34.1682  -10.8263   28.5461 H         1 <0>         0.1406 
     79 H29        35.9547  -20.0014   25.1426 H         1 <0>         0.0600 
     80 H30        34.4881  -20.8813   24.9090 H         1 <0>         0.0600 
     81 H31        38.4278  -17.0322   27.3931 H         1 <0>         0.0600 
     82 H32        38.4609  -16.6306   29.0823 H         1 <0>         0.0600 
     83 H33        35.1924  -13.6577   34.0106 H         1 <0>         0.0600 
     84 H34        36.4062  -13.2187   35.1465 H         1 <0>         0.0600 
     85 H35        31.6296  -15.4823   28.1180 H         1 <0>         0.0300 
     86 H36        31.2309  -15.1289   26.4370 H         1 <0>         0.0300 
     87 H37        37.1531  -19.2732   26.8176 H         1 <0>         0.1150 
     88 H38        37.1496   -7.6316   33.3975 H         1 <0>         0.0600 
     89 H39        33.4161  -15.1980   30.7684 H         1 <0>         0.0600 
     90 H40        33.3157  -19.7787   26.5298 H         1 <0>         0.0600 
     91 H41        34.5966  -19.4167   28.5374 H         1 <0>         0.0600 
     92 H42        35.3193  -17.2711   31.9086 H         1 <0>         0.0600 
     93 H43        34.9395  -17.2651   26.3947 H         1 <0>         0.3000 
     94 H44        35.0236  -14.7263   32.6945 H         1 <0>         0.2912 
     95 H45        35.7849  -18.5036   30.1709 H         1 <0>         0.3000 
     96 H46        36.0164  -21.2836   28.3264 H         1 <0>         0.4180 
@<TRIPOS>BOND
     1    1   29 1    
     2    1   51 1    
     3    1   52 1    
     4    1   53 1    
     5    2   29 1    
     6    2   54 1    
     7    2   55 1    
     8    2   56 1    
     9    3   30 1    
    10    3   57 1    
    11    3   58 1    
    12    3   59 1    
    13    4   30 1    
    14    4   60 1    
    15    4   61 1    
    16    4   62 1    
    17    5   43 1    
    18    5   63 1    
    19    5   64 1    
    20    5   65 1    
    21    6    8 ar   
    22    6    9 ar   
    23    6   66 1    
    24    7   10 ar   
    25    7   11 ar   
    26    7   67 1    
    27    8   12 ar   
    28    8   68 1    
    29    9   13 ar   
    30    9   69 1    
    31   10   14 ar   
    32   10   70 1    
    33   11   15 ar   
    34   11   71 1    
    35   12   24 ar   
    36   12   72 1    
    37   13   24 ar   
    38   13   73 1    
    39   14   25 ar   
    40   14   74 1    
    41   15   25 ar   
    42   15   75 1    
    43   16   26 2    
    44   16   38 1    
    45   16   76 1    
    46   17   27 2    
    47   17   49 1    
    48   17   77 1    
    49   18   38 2    
    50   18   50 1    
    51   18   78 1    
    52   19   24 1    
    53   19   31 1    
    54   19   79 1    
    55   19   80 1    
    56   20   25 1    
    57   20   34 1    
    58   20   81 1    
    59   20   82 1    
    60   21   27 1    
    61   21   43 1    
    62   21   83 1    
    63   21   84 1    
    64   22   26 1    
    65   22   48 1    
    66   22   85 1    
    67   22   86 1    
    68   23   32 1    
    69   23   34 2    
    70   23   87 1    
    71   26   50 1    
    72   27   39 1    
    73   28   29 1    
    74   28   39 2    
    75   28   49 1    
    76   29   88 1    
    77   30   33 1    
    78   30   89 1    
    79   31   32 1    
    80   31   40 1    
    81   31   90 1    
    82   32   44 1    
    83   32   91 1    
    84   33   35 1    
    85   33   41 1    
    86   33   92 1    
    87   34   42 1    
    88   35   42 am   BACKBONE|DICT|INTERRES
    89   35   45 2    
    90   36   41 am   BACKBONE|DICT|INTERRES
    91   36   43 am   BACKBONE|DICT|INTERRES
    92   36   46 2    
    93   37   40 am   BACKBONE|DICT|INTERRES
    94   37   47 2    
    95   37   48 1    
    96   40   93 1    
    97   41   94 1    
    98   42   95 1    
    99   44   96 1    
@<TRIPOS>SUBSTRUCTURE
     1 <0>         1 GROUP             0       ****    0 ROOT    
@<TRIPOS>MOLECULE
RIT_600_3NXU
96   99    1
SMALL
USER_CHARGES


@<TRIPOS>ATOM
      1 C1         34.4817  -10.4577   32.4276 C.3       1 <0>        -0.1800 
      2 C2         33.0377  -11.2647   30.4668 C.3       1 <0>        -0.1800 
      3 C3         41.4799  -17.3689   27.6389 C.3       1 <0>        -0.1800 
      4 C4         40.0196  -18.0029   29.5781 C.3       1 <0>        -0.1800 
      5 C5         38.7998  -12.3215   26.9738 C.3       1 <0>        -0.1303 
      6 C6         31.8191  -22.9571   24.2710 C.ar      1 <0>        -0.1150 
      7 C7         34.3366  -21.3442   31.3971 C.ar      1 <0>        -0.1150 
      8 C8         31.1163  -21.7483   24.1035 C.ar      1 <0>        -0.1150 
      9 C9         32.9466  -23.0047   25.1136 C.ar      1 <0>        -0.1150 
     10 C10        35.4833  -21.1216   30.6103 C.ar      1 <0>        -0.1150 
     11 C11        33.4793  -20.2717   31.7109 C.ar      1 <0>        -0.1150 
     12 C12        31.5409  -20.5875   24.7782 C.ar      1 <0>        -0.1150 
     13 C13        33.3711  -21.8443   25.7897 C.ar      1 <0>        -0.1150 
     14 C14        35.7726  -19.8272   30.1371 C.ar      1 <0>        -0.1150 
     15 C15        33.7682  -18.9767   31.2383 C.ar      1 <0>        -0.1150 
     16 C16        34.3728  -16.0949   19.5819 C.2       1 <0>         0.1862 
     17 C17        37.4063  -11.0748   28.8516 C.2       1 <0>        -0.3376 
     18 C18        36.5634  -15.5593   19.4574 C.2       1 <0>         0.1603 
     19 C19        33.1127  -19.3860   26.3751 C.3       1 <0>        -0.0050 
     20 C20        35.2324  -17.3517   29.9482 C.3       1 <0>        -0.0050 
     21 C21        38.4221  -13.4126   29.1598 C.3       1 <0>         0.0447 
     22 C22        34.1765  -18.4204   20.6605 C.3       1 <0>         0.3050 
     23 C23        34.1507  -17.1391   27.6596 C.2       1 <0>        -0.1150 
     24 C24        32.6687  -20.6321   25.6256 C.ar      1 <0>        -0.1150 
     25 C25        34.9160  -18.7504   30.4502 C.ar      1 <0>        -0.1150 
     26 C26        34.9120  -17.2311   20.1359 C.2       1 <0>        -0.2209 
     27 C27        37.4142  -12.3302   29.4050 C.2       1 <0>         0.1693 
     28 C28        35.5415  -11.4923   30.3935 C.2       1 <0>         0.1859 
     29 C29        34.3308  -11.4582   31.2723 C.3       1 <0>         0.0550 
     30 C30        40.1206  -17.9765   28.0420 C.3       1 <0>        -0.0600 
     31 C31        33.2911  -18.1481   25.4636 C.3       1 <0>         0.1400 
     32 C32        34.0032  -16.9527   26.1451 C.3       1 <0>         0.2050 
     33 C33        38.9130  -17.2329   27.3981 C.3       1 <0>         0.0625 
     34 C34        35.2671  -17.1795   28.4259 C.2       1 <0>         0.0513 
     35 C35        37.5739  -17.8777   27.8053 C.2       1 <0>         0.5000 
     36 C36        38.8821  -14.7576   27.0854 C.2       1 <0>         0.8137 
     37 C37        33.5121  -18.1348   22.9502 C.2       1 <0>         0.5159 
     38 N1         35.3233  -15.1463   19.1953 N.2       1 <0>        -0.4803 
     39 N2         36.3453  -12.5538   30.2767 N.2       1 <0>        -0.4803 
     40 N3         33.9553  -18.5019   24.2080 N.am      1 <0>        -0.4389 
     41 N4         38.8865  -15.8475   27.8734 N.am      1 <0>        -0.4886 
     42 N5         36.5268  -17.0330   27.8275 N.am      1 <0>        -0.3513 
     43 N6         38.7247  -13.5756   27.7291 N.am      1 <0>        -0.2219 
     44 O1         33.3818  -15.7333   25.7749 O.3       1 <0>        -0.6830 
     45 O2         37.5373  -19.0645   28.1299 O.2       1 <0>        -0.5000 
     46 O3         39.0146  -14.8367   25.8616 O.2       1 <0>        -0.6163 
     47 O4         32.4620  -17.5507   22.6817 O.2       1 <0>        -0.4970 
     48 O5         34.4397  -18.5103   22.0540 O.3       1 <0>        -0.3300 
     49 S1         36.0573  -10.1261   29.4112 S.3       1 <0>         0.0010 
     50 S2         36.6542  -17.1553   20.1824 S.3       1 <0>         0.0010 
     51 H1         35.3629  -10.6845   33.0285 H         1 <0>         0.0600 
     52 H2         34.5854   -9.4369   32.0598 H         1 <0>         0.0600 
     53 H3         33.6149  -10.4861   33.0881 H         1 <0>         0.0600 
     54 H4         32.9226  -12.0495   29.7185 H         1 <0>         0.0600 
     55 H5         32.1620  -11.2955   31.1153 H         1 <0>         0.0600 
     56 H6         33.0312  -10.3078   29.9454 H         1 <0>         0.0600 
     57 H7         41.5402  -16.3164   27.9173 H         1 <0>         0.0600 
     58 H8         42.3024  -17.8882   28.1315 H         1 <0>         0.0600 
     59 H9         41.6615  -17.4401   26.5664 H         1 <0>         0.0600 
     60 H10        39.9885  -16.9944   29.9915 H         1 <0>         0.0600 
     61 H11        39.1260  -18.5259   29.9128 H         1 <0>         0.0600 
     62 H12        40.8724  -18.5176   30.0215 H         1 <0>         0.0600 
     63 H13        37.9265  -12.2074   26.3314 H         1 <0>         0.0600 
     64 H14        38.8476  -11.4495   27.6268 H         1 <0>         0.0600 
     65 H15        39.6905  -12.2970   26.3440 H         1 <0>         0.0600 
     66 H16        31.4933  -23.8477   23.7541 H         1 <0>         0.1150 
     67 H17        34.1149  -22.3371   31.7597 H         1 <0>         0.1150 
     68 H18        30.2505  -21.7114   23.4589 H         1 <0>         0.1150 
     69 H19        33.4847  -23.9321   25.2440 H         1 <0>         0.1150 
     70 H20        36.1420  -21.9430   30.3698 H         1 <0>         0.1150 
     71 H21        32.6000  -20.4419   32.3146 H         1 <0>         0.1150 
     72 H22        30.9923  -19.6657   24.6497 H         1 <0>         0.1150 
     73 H23        34.2322  -21.8890   26.4406 H         1 <0>         0.1150 
     74 H24        36.6561  -19.6621   29.5381 H         1 <0>         0.1150 
     75 H25        33.1092  -18.1567   31.4841 H         1 <0>         0.1150 
     76 H26        33.3251  -15.8762   19.4356 H         1 <0>         0.0981 
     77 H27        38.1118  -10.6498   28.1532 H         1 <0>         0.2317 
     78 H28        37.4139  -14.9349   19.2269 H         1 <0>         0.1406 
     79 H29        34.0456  -19.6213   26.8879 H         1 <0>         0.0600 
     80 H30        32.3885  -19.1661   27.1602 H         1 <0>         0.0600 
     81 H31        36.1889  -17.0465   30.3747 H         1 <0>         0.0600 
     82 H32        34.4788  -16.6763   30.3531 H         1 <0>         0.0600 
     83 H33        38.0520  -14.3627   29.5478 H         1 <0>         0.0600 
     84 H34        39.3203  -13.2238   29.7476 H         1 <0>         0.0600 
     85 H35        33.1077  -18.3477   20.4536 H         1 <0>         0.0300 
     86 H36        34.5377  -19.3271   20.1752 H         1 <0>         0.0300 
     87 H37        33.1940  -17.2337   28.1509 H         1 <0>         0.1150 
     88 H38        34.2594  -12.4450   31.7313 H         1 <0>         0.0600 
     89 H39        40.1147  -19.0152   27.7062 H         1 <0>         0.0600 
     90 H40        32.2824  -17.8123   25.2154 H         1 <0>         0.0600 
     91 H41        35.0190  -16.8889   25.7532 H         1 <0>         0.0600 
     92 H42        39.0215  -17.2534   26.3114 H         1 <0>         0.0600 
     93 H43        34.8076  -19.0434   24.2459 H         1 <0>         0.3000 
     94 H44        38.8034  -15.7104   28.8698 H         1 <0>         0.2912 
     95 H45        36.7172  -16.0961   27.4995 H         1 <0>         0.3000 
     96 H46        32.8120  -15.4614   26.4818 H         1 <0>         0.4180 
@<TRIPOS>BOND
     1    1   29 1    
     2    1   51 1    
     3    1   52 1    
     4    1   53 1    
     5    2   29 1    
     6    2   54 1    
     7    2   55 1    
     8    2   56 1    
     9    3   30 1    
    10    3   57 1    
    11    3   58 1    
    12    3   59 1    
    13    4   30 1    
    14    4   60 1    
    15    4   61 1    
    16    4   62 1    
    17    5   43 1    
    18    5   63 1    
    19    5   64 1    
    20    5   65 1    
    21    6    8 ar   
    22    6    9 ar   
    23    6   66 1    
    24    7   10 ar   
    25    7   11 ar   
    26    7   67 1    
    27    8   12 ar   
    28    8   68 1    
    29    9   13 ar   
    30    9   69 1    
    31   10   14 ar   
    32   10   70 1    
    33   11   15 ar   
    34   11   71 1    
    35   12   24 ar   
    36   12   72 1    
    37   13   24 ar   
    38   13   73 1    
    39   14   25 ar   
    40   14   74 1    
    41   15   25 ar   
    42   15   75 1    
    43   16   26 2    
    44   16   38 1    
    45   16   76 1    
    46   17   27 2    
    47   17   49 1    
    48   17   77 1    
    49   18   38 2    
    50   18   50 1    
    51   18   78 1    
    52   19   24 1    
    53   19   31 1    
    54   19   79 1    
    55   19   80 1    
    56   20   25 1    
    57   20   34 1    
    58   20   81 1    
    59   20   82 1    
    60   21   27 1    
    61   21   43 1    
    62   21   83 1    
    63   21   84 1    
    64   22   26 1    
    65   22   48 1    
    66   22   85 1    
    67   22   86 1    
    68   23   32 1    
    69   23   34 2    
    70   23   87 1    
    71   26   50 1    
    72   27   39 1    
    73   28   29 1    
    74   28   39 2    
    75   28   49 1    
    76   29   88 1    
    77   30   33 1    
    78   30   89 1    
    79   31   32 1    
    80   31   40 1    
    81   31   90 1    
    82   32   44 1    
    83   32   91 1    
    84   33   35 1    
    85   33   41 1    
    86   33   92 1    
    87   34   42 1    
    88   35   42 am   BACKBONE|DICT|INTERRES
    89   35   45 2    
    90   36   41 am   BACKBONE|DICT|INTERRES
    91   36   43 am   BACKBONE|DICT|INTERRES
    92   36   46 2    
    93   37   40 am   BACKBONE|DICT|INTERRES
    94   37   47 2    
    95   37   48 1    
    96   40   93 1    
    97   41   94 1    
    98   42   95 1    
    99   44   96 1    
@<TRIPOS>SUBSTRUCTURE
     1 <0>         1 GROUP             0       ****    0 ROOT    
@<TRIPOS>MOLECULE
RIT_600_3NXU
96   99    1
SMALL
USER_CHARGES


@<TRIPOS>ATOM
      1 C1         32.4175  -20.1092   22.2915 C.3       1 <0>        -0.1800 
      2 C2         33.9989  -18.2634   21.4711 C.3       1 <0>        -0.1800 
      3 C3         32.5036  -13.1148   31.1606 C.3       1 <0>        -0.1800 
      4 C4         33.3976  -10.7851   30.8994 C.3       1 <0>        -0.1800 
      5 C5         31.5794  -15.9462   28.0808 C.3       1 <0>        -0.1303 
      6 C6         36.8891   -9.3608   34.8342 C.ar      1 <0>        -0.1150 
      7 C7         40.4442  -16.7680   27.3147 C.ar      1 <0>        -0.1150 
      8 C8         36.4595  -10.4849   35.5655 C.ar      1 <0>        -0.1150 
      9 C9         37.4786   -9.5293   33.5663 C.ar      1 <0>        -0.1150 
     10 C10        39.4536  -17.6967   27.6884 C.ar      1 <0>        -0.1150 
     11 C11        40.0865  -15.4385   27.0180 C.ar      1 <0>        -0.1150 
     12 C12        36.6193  -11.7771   35.0292 C.ar      1 <0>        -0.1150 
     13 C13        37.6377  -10.8213   33.0288 C.ar      1 <0>        -0.1150 
     14 C14        38.1058  -17.2962   27.7658 C.ar      1 <0>        -0.1150 
     15 C15        38.7386  -15.0373   27.0948 C.ar      1 <0>        -0.1150 
     16 C16        35.8907  -19.8250   28.8522 C.2       1 <0>         0.1862 
     17 C17        33.3539  -17.4544   26.1568 C.2       1 <0>        -0.3376 
     18 C18        33.9420  -20.6388   29.6530 C.2       1 <0>         0.1603 
     19 C19        37.3564  -13.3422   33.1661 C.3       1 <0>        -0.0050 
     20 C20        36.2888  -15.5343   27.5424 C.3       1 <0>        -0.0050 
     21 C21        31.5086  -15.7527   25.6172 C.3       1 <0>         0.0447 
     22 C22        36.9196  -18.2985   30.6469 C.3       1 <0>         0.3050 
     23 C23        36.7936  -14.1200   29.5912 C.2       1 <0>        -0.1150 
     24 C24        37.2071  -11.9496   33.7577 C.ar      1 <0>        -0.1150 
     25 C25        37.7440  -15.9651   27.4686 C.ar      1 <0>        -0.1150 
     26 C26        35.8814  -19.2115   30.0818 C.2       1 <0>        -0.2209 
     27 C27        32.4508  -16.8752   25.3016 C.2       1 <0>         0.1693 
     28 C28        33.3630  -18.4206   23.8995 C.2       1 <0>         0.1859 
     29 C29        33.5938  -19.1827   22.6325 C.3       1 <0>         0.0550 
     30 C30        32.5065  -11.8643   30.2576 C.3       1 <0>        -0.0600 
     31 C31        36.3130  -13.6621   32.0690 C.3       1 <0>         0.1400 
     32 C32        36.6400  -13.0537   30.6820 C.3       1 <0>         0.2050 
     33 C33        32.9430  -12.1772   28.7957 C.3       1 <0>         0.0625 
     34 C34        35.9656  -14.4434   28.5689 C.2       1 <0>         0.0513 
     35 C35        34.4532  -12.4721   28.7109 C.2       1 <0>         0.5000 
     36 C36        32.2555  -13.8346   27.0619 C.2       1 <0>         0.8137 
     37 C37        36.9215  -15.9963   31.3291 C.2       1 <0>         0.5159 
     38 N1         34.7782  -20.6367   28.6149 N.2       1 <0>        -0.4803 
     39 N2         32.4652  -17.4381   24.0228 N.2       1 <0>        -0.4803 
     40 N3         36.0764  -15.1028   31.9620 N.am      1 <0>        -0.4389 
     41 N4         32.2428  -13.3751   28.3259 N.am      1 <0>        -0.4886 
     42 N5         34.7611  -13.7451   28.4024 N.am      1 <0>        -0.3513 
     43 N6         31.8228  -15.1089   26.9024 N.am      1 <0>        -0.2219 
     44 O1         37.7442  -12.1700   30.7801 O.3       1 <0>        -0.6830 
     45 O2         35.2675  -11.5866   28.9719 O.2       1 <0>        -0.5000 
     46 O3         32.6347  -13.1373   26.1179 O.2       1 <0>        -0.6163 
     47 O4         38.0889  -15.7938   30.9942 O.2       1 <0>        -0.4970 
     48 O5         36.2545  -17.1488   31.1520 O.3       1 <0>        -0.3300 
     49 S1         34.2595  -18.7250   25.3832 S.3       1 <0>         0.0010 
     50 S2         34.4527  -19.6263   30.9929 S.3       1 <0>         0.0010 
     51 H1         32.2200  -20.8063   23.1063 H         1 <0>         0.0600 
     52 H2         31.5037  -19.5431   22.1111 H         1 <0>         0.0600 
     53 H3         32.6260  -20.6965   21.3971 H         1 <0>         0.0600 
     54 H4         34.8930  -17.6909   21.7197 H         1 <0>         0.0600 
     55 H5         34.2148  -18.8389   20.5707 H         1 <0>         0.0600 
     56 H6         33.2085  -17.5531   21.2295 H         1 <0>         0.0600 
     57 H7         33.4885  -13.5817   31.1918 H         1 <0>         0.0600 
     58 H8         32.2275  -12.8583   32.1838 H         1 <0>         0.0600 
     59 H9         31.7899  -13.8660   30.8222 H         1 <0>         0.0600 
     60 H10        34.4429  -11.0947   30.9212 H         1 <0>         0.0600 
     61 H11        33.3421   -9.8437   30.3566 H         1 <0>         0.0600 
     62 H12        33.0910  -10.5778   31.9249 H         1 <0>         0.0600 
     63 H13        30.6963  -15.6030   28.6199 H         1 <0>         0.0600 
     64 H14        31.4215  -16.9925   27.8173 H         1 <0>         0.0600 
     65 H15        32.4288  -15.9148   28.7651 H         1 <0>         0.0600 
     66 H16        36.7661   -8.3695   35.2451 H         1 <0>         0.1150 
     67 H17        41.4779  -17.0756   27.2556 H         1 <0>         0.1150 
     68 H18        36.0056  -10.3565   36.5372 H         1 <0>         0.1150 
     69 H19        37.8064   -8.6672   33.0042 H         1 <0>         0.1150 
     70 H20        39.7265  -18.7168   27.9152 H         1 <0>         0.1150 
     71 H21        40.8459  -14.7261   26.7310 H         1 <0>         0.1150 
     72 H22        36.2809  -12.6340   35.5936 H         1 <0>         0.1150 
     73 H23        38.0836  -10.9436   32.0524 H         1 <0>         0.1150 
     74 H24        37.3501  -18.0144   28.0484 H         1 <0>         0.1150 
     75 H25        38.4687  -14.0171   26.8635 H         1 <0>         0.1150 
     76 H26        36.6538  -19.7469   28.0916 H         1 <0>         0.0981 
     77 H27        33.5439  -17.2095   27.1912 H         1 <0>         0.2317 
     78 H28        33.0363  -21.2268   29.6317 H         1 <0>         0.1406 
     79 H29        37.2845  -14.0600   33.9836 H         1 <0>         0.0600 
     80 H30        38.3635  -13.4510   32.7620 H         1 <0>         0.0600 
     81 H31        35.6828  -16.4190   27.7430 H         1 <0>         0.0600 
     82 H32        35.9998  -15.1735   26.5553 H         1 <0>         0.0600 
     83 H33        30.4837  -16.1248   25.6556 H         1 <0>         0.0600 
     84 H34        31.4948  -15.0371   24.7953 H         1 <0>         0.0600 
     85 H35        37.5083  -18.7978   31.4180 H         1 <0>         0.0300 
     86 H36        37.6113  -17.9889   29.8635 H         1 <0>         0.0300 
     87 H37        37.7237  -14.6607   29.6818 H         1 <0>         0.1150 
     88 H38        34.4493  -19.8329   22.8195 H         1 <0>         0.0600 
     89 H39        31.4892  -11.4684   30.2447 H         1 <0>         0.0600 
     90 H40        35.3801  -13.2024   32.4011 H         1 <0>         0.0600 
     91 H41        35.7995  -12.4314   30.3729 H         1 <0>         0.0600 
     92 H42        32.6933  -11.3246   28.1601 H         1 <0>         0.0600 
     93 H43        35.2456  -15.4907   32.3866 H         1 <0>         0.3000 
     94 H44        31.7665  -13.9264   29.0243 H         1 <0>         0.2912 
     95 H45        33.9777  -14.3341   28.1556 H         1 <0>         0.3000 
     96 H46        38.2526  -12.2370   29.9830 H         1 <0>         0.4180 
@<TRIPOS>BOND
     1    1   29 1    
     2    1   51 1    
     3    1   52 1    
     4    1   53 1    
     5    2   29 1    
     6    2   54 1    
     7    2   55 1    
     8    2   56 1    
     9    3   30 1    
    10    3   57 1    
    11    3   58 1    
    12    3   59 1    
    13    4   30 1    
    14    4   60 1    
    15    4   61 1    
    16    4   62 1    
    17    5   43 1    
    18    5   63 1    
    19    5   64 1    
    20    5   65 1    
    21    6    8 ar   
    22    6    9 ar   
    23    6   66 1    
    24    7   10 ar   
    25    7   11 ar   
    26    7   67 1    
    27    8   12 ar   
    28    8   68 1    
    29    9   13 ar   
    30    9   69 1    
    31   10   14 ar   
    32   10   70 1    
    33   11   15 ar   
    34   11   71 1    
    35   12   24 ar   
    36   12   72 1    
    37   13   24 ar   
    38   13   73 1    
    39   14   25 ar   
    40   14   74 1    
    41   15   25 ar   
    42   15   75 1    
    43   16   26 2    
    44   16   38 1    
    45   16   76 1    
    46   17   27 2    
    47   17   49 1    
    48   17   77 1    
    49   18   38 2    
    50   18   50 1    
    51   18   78 1    
    52   19   24 1    
    53   19   31 1    
    54   19   79 1    
    55   19   80 1    
    56   20   25 1    
    57   20   34 1    
    58   20   81 1    
    59   20   82 1    
    60   21   27 1    
    61   21   43 1    
    62   21   83 1    
    63   21   84 1    
    64   22   26 1    
    65   22   48 1    
    66   22   85 1    
    67   22   86 1    
    68   23   32 1    
    69   23   34 2    
    70   23   87 1    
    71   26   50 1    
    72   27   39 1    
    73   28   29 1    
    74   28   39 2    
    75   28   49 1    
    76   29   88 1    
    77   30   33 1    
    78   30   89 1    
    79   31   32 1    
    80   31   40 1    
    81   31   90 1    
    82   32   44 1    
    83   32   91 1    
    84   33   35 1    
    85   33   41 1    
    86   33   92 1    
    87   34   42 1    
    88   35   42 am   BACKBONE|DICT|INTERRES
    89   35   45 2    
    90   36   41 am   BACKBONE|DICT|INTERRES
    91   36   43 am   BACKBONE|DICT|INTERRES
    92   36   46 2    
    93   37   40 am   BACKBONE|DICT|INTERRES
    94   37   47 2    
    95   37   48 1    
    96   40   93 1    
    97   41   94 1    
    98   42   95 1    
    99   44   96 1    
@<TRIPOS>SUBSTRUCTURE
     1 <0>         1 GROUP             0       ****    0 ROOT    
@<TRIPOS>MOLECULE
RIT_600_3NXU
96   99    1
SMALL
USER_CHARGES


@<TRIPOS>ATOM
      1 C1         33.2155  -12.6320   31.2452 C.3       1 <0>        -0.1800 
      2 C2         34.6035  -11.3891   33.0087 C.3       1 <0>        -0.1800 
      3 C3         41.2372  -17.5404   28.7198 C.3       1 <0>        -0.1800 
      4 C4         39.3436  -17.9507   30.3138 C.3       1 <0>        -0.1800 
      5 C5         38.6842  -12.3735   27.1868 C.3       1 <0>        -0.1303 
      6 C6         31.3327  -21.9888   24.0860 C.ar      1 <0>        -0.1150 
      7 C7         34.3623  -21.3936   31.2890 C.ar      1 <0>        -0.1150 
      8 C8         30.7394  -20.7207   23.9342 C.ar      1 <0>        -0.1150 
      9 C9         32.3821  -22.1691   25.0078 C.ar      1 <0>        -0.1150 
     10 C10        35.4560  -21.0365   30.4765 C.ar      1 <0>        -0.1150 
     11 C11        33.4831  -20.4002   31.7620 C.ar      1 <0>        -0.1150 
     12 C12        31.1954  -19.6332   24.7038 C.ar      1 <0>        -0.1150 
     13 C13        32.8379  -21.0821   25.7787 C.ar      1 <0>        -0.1150 
     14 C14        35.6702  -19.6868   30.1368 C.ar      1 <0>        -0.1150 
     15 C15        33.6969  -19.0500   31.4230 C.ar      1 <0>        -0.1150 
     16 C16        34.2821  -16.2878   19.8144 C.2       1 <0>         0.1862 
     17 C17        37.1652  -11.0939   28.9870 C.2       1 <0>        -0.3376 
     18 C18        36.4329  -15.7436   19.3914 C.2       1 <0>         0.1603 
     19 C19        32.7208  -18.6436   26.4810 C.3       1 <0>        -0.0050 
     20 C20        35.0272  -17.2314   30.2517 C.3       1 <0>        -0.0050 
     21 C21        38.3451  -13.3285   29.4417 C.3       1 <0>         0.0447 
     22 C22        34.2516  -18.5641   21.0091 C.3       1 <0>         0.3050 
     23 C23        34.0603  -16.7134   27.9605 C.2       1 <0>        -0.1150 
     24 C24        32.2450  -19.8108   25.6306 C.ar      1 <0>        -0.1150 
     25 C25        34.7915  -18.6891   30.6096 C.ar      1 <0>        -0.1150 
     26 C26        34.9006  -17.3945   20.3447 C.2       1 <0>        -0.2209 
     27 C27        37.2737  -12.2980   29.6358 C.2       1 <0>         0.1693 
     28 C28        35.3774  -11.5076   30.6184 C.2       1 <0>         0.1859 
     29 C29        34.1925  -11.4824   31.5320 C.3       1 <0>         0.0550 
     30 C30        39.7791  -18.0293   28.8391 C.3       1 <0>        -0.0600 
     31 C31        33.2105  -17.4335   25.6499 C.3       1 <0>         0.1400 
     32 C32        33.9901  -16.3730   26.4673 C.3       1 <0>         0.2050 
     33 C33        38.8037  -17.2500   27.9081 C.3       1 <0>         0.0625 
     34 C34        35.1377  -16.9197   28.7554 C.2       1 <0>         0.0513 
     35 C35        37.3613  -17.7768   28.0379 C.2       1 <0>         0.5000 
     36 C36        38.7710  -14.7982   27.4461 C.2       1 <0>         0.8137 
     37 C37        33.4604  -18.0802   23.2238 C.2       1 <0>         0.5159 
     38 N1         35.1647  -15.3511   19.2702 N.2       1 <0>        -0.4803 
     39 N2         36.2475  -12.5204   30.5576 N.2       1 <0>        -0.4803 
     40 N3         33.9853  -17.8651   24.4853 N.am      1 <0>        -0.4389 
     41 N4         38.7838  -15.8383   28.2987 N.am      1 <0>        -0.4886 
     42 N5         36.4284  -16.8236   28.2157 N.am      1 <0>        -0.3513 
     43 N6         38.6234  -13.5789   28.0187 N.am      1 <0>        -0.2219 
     44 O1         33.4864  -15.0755   26.1977 O.3       1 <0>        -0.6830 
     45 O2         37.1472  -18.9890   28.0300 O.2       1 <0>        -0.5000 
     46 O3         38.8880  -14.9517   26.2278 O.2       1 <0>        -0.6163 
     47 O4         32.2832  -17.9535   22.8855 O.2       1 <0>        -0.4970 
     48 O5         34.4656  -18.4392   22.4083 O.3       1 <0>        -0.3300 
     49 S1         35.7717  -10.1934   29.5161 S.3       1 <0>         0.0010 
     50 S2         36.6338  -17.3050   20.1677 S.3       1 <0>         0.0010 
     51 H1         32.8781  -12.6089   30.2086 H         1 <0>         0.0600 
     52 H2         33.6795  -13.6025   31.4210 H         1 <0>         0.0600 
     53 H3         32.3329  -12.5660   31.8817 H         1 <0>         0.0600 
     54 H4         35.2201  -10.5077   33.1875 H         1 <0>         0.0600 
     55 H5         33.7296  -11.3180   33.6565 H         1 <0>         0.0600 
     56 H6         35.1770  -12.2620   33.3196 H         1 <0>         0.0600 
     57 H7         41.3181  -16.4785   28.9542 H         1 <0>         0.0600 
     58 H8         41.8888  -18.0806   29.4072 H         1 <0>         0.0600 
     59 H9         41.6423  -17.6920   27.7193 H         1 <0>         0.0600 
     60 H10        39.3027  -16.9180   30.6613 H         1 <0>         0.0600 
     61 H11        38.3601  -18.3907   30.4660 H         1 <0>         0.0600 
     62 H12        40.0357  -18.4915   30.9598 H         1 <0>         0.0600 
     63 H13        37.7999  -12.2990   26.5536 H         1 <0>         0.0600 
     64 H14        38.7422  -11.4631   27.7842 H         1 <0>         0.0600 
     65 H15        39.5640  -12.3876   26.5415 H         1 <0>         0.0600 
     66 H16        30.9826  -22.8233   23.4963 H         1 <0>         0.1150 
     67 H17        34.1983  -22.4289   31.5492 H         1 <0>         0.1150 
     68 H18        29.9333  -20.5820   23.2289 H         1 <0>         0.1150 
     69 H19        32.8360  -23.1420   25.1260 H         1 <0>         0.1150 
     70 H20        36.1315  -21.7972   30.1140 H         1 <0>         0.1150 
     71 H21        32.6445  -20.6736   32.3854 H         1 <0>         0.1150 
     72 H22        30.7304  -18.6651   24.5864 H         1 <0>         0.1150 
     73 H23        33.6381  -21.2284   26.4897 H         1 <0>         0.1150 
     74 H24        36.5135  -19.4188   29.5173 H         1 <0>         0.1150 
     75 H25        33.0214  -18.2913   31.7907 H         1 <0>         0.1150 
     76 H26        33.2217  -16.0829   19.7921 H         1 <0>         0.0981 
     77 H27        37.8203  -10.6810   28.2344 H         1 <0>         0.2317 
     78 H28        37.2400  -15.1244   19.0285 H         1 <0>         0.1406 
     79 H29        33.5164  -19.0086   27.1309 H         1 <0>         0.0600 
     80 H30        31.9125  -18.3341   27.1445 H         1 <0>         0.0600 
     81 H31        35.9306  -16.8980   30.7644 H         1 <0>         0.0600 
     82 H32        34.2011  -16.6517   30.6632 H         1 <0>         0.0600 
     83 H33        38.0483  -14.2686   29.9091 H         1 <0>         0.0600 
     84 H34        39.2426  -13.0385   29.9878 H         1 <0>         0.0600 
     85 H35        33.1897  -18.6192   20.7646 H         1 <0>         0.0300 
     86 H36        34.7099  -19.4912   20.6647 H         1 <0>         0.0300 
     87 H37        33.0798  -16.7733   28.4086 H         1 <0>         0.1150 
     88 H38        33.6536  -10.5613   31.3067 H         1 <0>         0.0600 
     89 H39        39.7647  -19.0847   28.5604 H         1 <0>         0.0600 
     90 H40        32.3092  -16.9424   25.2779 H         1 <0>         0.0600 
     91 H41        35.0227  -16.3597   26.1167 H         1 <0>         0.0600 
     92 H42        39.1446  -17.3474   26.8749 H         1 <0>         0.0600 
     93 H43        34.9799  -18.0093   24.5908 H         1 <0>         0.3000 
     94 H44        38.7123  -15.6408   29.2859 H         1 <0>         0.2912 
     95 H45        36.7475  -15.8735   28.0857 H         1 <0>         0.3000 
     96 H46        32.7952  -14.8881   26.8185 H         1 <0>         0.4180 
@<TRIPOS>BOND
     1    1   29 1    
     2    1   51 1    
     3    1   52 1    
     4    1   53 1    
     5    2   29 1    
     6    2   54 1    
     7    2   55 1    
     8    2   56 1    
     9    3   30 1    
    10    3   57 1    
    11    3   58 1    
    12    3   59 1    
    13    4   30 1    
    14    4   60 1    
    15    4   61 1    
    16    4   62 1    
    17    5   43 1    
    18    5   63 1    
    19    5   64 1    
    20    5   65 1    
    21    6    8 ar   
    22    6    9 ar   
    23    6   66 1    
    24    7   10 ar   
    25    7   11 ar   
    26    7   67 1    
    27    8   12 ar   
    28    8   68 1    
    29    9   13 ar   
    30    9   69 1    
    31   10   14 ar   
    32   10   70 1    
    33   11   15 ar   
    34   11   71 1    
    35   12   24 ar   
    36   12   72 1    
    37   13   24 ar   
    38   13   73 1    
    39   14   25 ar   
    40   14   74 1    
    41   15   25 ar   
    42   15   75 1    
    43   16   26 2    
    44   16   38 1    
    45   16   76 1    
    46   17   27 2    
    47   17   49 1    
    48   17   77 1    
    49   18   38 2    
    50   18   50 1    
    51   18   78 1    
    52   19   24 1    
    53   19   31 1    
    54   19   79 1    
    55   19   80 1    
    56   20   25 1    
    57   20   34 1    
    58   20   81 1    
    59   20   82 1    
    60   21   27 1    
    61   21   43 1    
    62   21   83 1    
    63   21   84 1    
    64   22   26 1    
    65   22   48 1    
    66   22   85 1    
    67   22   86 1    
    68   23   32 1    
    69   23   34 2    
    70   23   87 1    
    71   26   50 1    
    72   27   39 1    
    73   28   29 1    
    74   28   39 2    
    75   28   49 1    
    76   29   88 1    
    77   30   33 1    
    78   30   89 1    
    79   31   32 1    
    80   31   40 1    
    81   31   90 1    
    82   32   44 1    
    83   32   91 1    
    84   33   35 1    
    85   33   41 1    
    86   33   92 1    
    87   34   42 1    
    88   35   42 am   BACKBONE|DICT|INTERRES
    89   35   45 2    
    90   36   41 am   BACKBONE|DICT|INTERRES
    91   36   43 am   BACKBONE|DICT|INTERRES
    92   36   46 2    
    93   37   40 am   BACKBONE|DICT|INTERRES
    94   37   47 2    
    95   37   48 1    
    96   40   93 1    
    97   41   94 1    
    98   42   95 1    
    99   44   96 1    
@<TRIPOS>SUBSTRUCTURE
     1 <0>         1 GROUP             0       ****    0 ROOT    
@<TRIPOS>MOLECULE
RIT_600_3NXU
96   99    1
SMALL
USER_CHARGES


@<TRIPOS>ATOM
      1 C1         38.4233  -13.5359   30.8034 C.3       1 <0>        -0.1800 
      2 C2         38.7522  -14.5155   33.1488 C.3       1 <0>        -0.1800 
      3 C3         31.6816  -14.8843   28.3978 C.3       1 <0>        -0.1800 
      4 C4         34.0568  -14.3236   27.7621 C.3       1 <0>        -0.1800 
      5 C5         34.2532  -20.0214   30.8148 C.3       1 <0>        -0.1303 
      6 C6         30.6120  -25.8091   26.3974 C.ar      1 <0>        -0.1150 
      7 C7         36.6266  -19.0385   19.5796 C.ar      1 <0>        -0.1150 
      8 C8         29.8157  -24.6626   26.5954 C.ar      1 <0>        -0.1150 
      9 C9         31.8769  -25.6822   25.7925 C.ar      1 <0>        -0.1150 
     10 C10        36.9566  -19.8220   20.7026 C.ar      1 <0>        -0.1150 
     11 C11        35.8273  -17.8899   19.7329 C.ar      1 <0>        -0.1150 
     12 C12        30.2756  -23.3964   26.1696 C.ar      1 <0>        -0.1150 
     13 C13        32.3447  -24.4181   25.3846 C.ar      1 <0>        -0.1150 
     14 C14        36.5061  -19.4453   21.9810 C.ar      1 <0>        -0.1150 
     15 C15        35.3704  -17.5179   21.0109 C.ar      1 <0>        -0.1150 
     16 C16        36.6045  -25.3849   21.3868 C.2       1 <0>         0.1862 
     17 C17        37.1689  -18.1635   30.5204 C.2       1 <0>        -0.3376 
     18 C18        35.4737  -26.9728   22.5301 C.2       1 <0>         0.1603 
     19 C19        32.1250  -21.8869   25.2275 C.3       1 <0>        -0.0050 
     20 C20        35.2620  -17.8631   23.5292 C.3       1 <0>        -0.0050 
     21 C21        34.7225  -17.6013   31.1595 C.3       1 <0>         0.0447 
     22 C22        35.1145  -23.3805   20.9764 C.3       1 <0>         0.3050 
     23 C23        33.1262  -19.2271   23.2977 C.2       1 <0>        -0.1150 
     24 C24        31.5528  -23.2647   25.5691 C.ar      1 <0>        -0.1150 
     25 C25        35.7136  -18.2887   22.1411 C.ar      1 <0>        -0.1150 
     26 C26        35.4120  -24.7358   21.5350 C.2       1 <0>        -0.2209 
     27 C27        36.1924  -17.3224   30.9969 C.2       1 <0>         0.1693 
     28 C28        38.0186  -15.9790   31.2454 C.2       1 <0>         0.1859 
     29 C29        38.8076  -14.7685   31.6347 C.3       1 <0>         0.0550 
     30 C30        32.8291  -15.1989   27.4231 C.3       1 <0>        -0.0600 
     31 C31        31.6870  -21.3602   23.8319 C.3       1 <0>         0.1400 
     32 C32        31.7405  -19.8151   23.6068 C.3       1 <0>         0.2050 
     33 C33        33.1018  -16.7290   27.3537 C.3       1 <0>         0.0625 
     34 C34        33.8765  -18.3367   23.9894 C.2       1 <0>         0.0513 
     35 C35        33.9921  -17.0938   26.1510 C.2       1 <0>         0.5000 
     36 C36        33.8381  -18.4731   28.9788 C.2       1 <0>         0.8137 
     37 C37        33.6627  -22.2974   22.5386 C.2       1 <0>         0.5159 
     38 N1         36.6325  -26.6516   21.9606 N.2       1 <0>        -0.4803 
     39 N2         36.6934  -16.0781   31.3926 N.2       1 <0>        -0.4803 
     40 N3         32.3012  -22.1063   22.7294 N.am      1 <0>        -0.4389 
     41 N4         33.6823  -17.1870   28.6166 N.am      1 <0>        -0.4886 
     42 N5         33.3796  -17.8191   25.1935 N.am      1 <0>        -0.3513 
     43 N6         34.2310  -18.6621   30.2621 N.am      1 <0>        -0.2219 
     44 O1         31.0382  -19.1319   24.6316 O.3       1 <0>        -0.6830 
     45 O2         35.1690  -16.7356   26.1259 O.2       1 <0>        -0.5000 
     46 O3         33.5803  -19.3999   28.2121 O.2       1 <0>        -0.6163 
     47 O4         34.5812  -21.9180   23.2670 O.2       1 <0>        -0.4970 
     48 O5         33.8256  -22.9736   21.3971 O.3       1 <0>        -0.3300 
     49 S1         38.7487  -17.4320   30.5718 S.3       1 <0>         0.0010 
     50 S2         34.2613  -25.7151   22.4302 S.3       1 <0>         0.0010 
     51 H1         38.5673  -13.7211   29.7383 H         1 <0>         0.0600 
     52 H2         37.3808  -13.2640   30.9594 H         1 <0>         0.0600 
     53 H3         39.0325  -12.6717   31.0726 H         1 <0>         0.0600 
     54 H4         39.0803  -15.3937   33.7055 H         1 <0>         0.0600 
     55 H5         39.3928  -13.6794   33.4289 H         1 <0>         0.0600 
     56 H6         37.7374  -14.2813   33.4707 H         1 <0>         0.0600 
     57 H7         31.9433  -15.1304   29.4263 H         1 <0>         0.0600 
     58 H8         31.4340  -13.8227   28.3667 H         1 <0>         0.0600 
     59 H9         30.7775  -15.4392   28.1432 H         1 <0>         0.0600 
     60 H10        34.4910  -14.5898   28.7251 H         1 <0>         0.0600 
     61 H11        34.8426  -14.4037   27.0100 H         1 <0>         0.0600 
     62 H12        33.7808  -13.2692   27.8173 H         1 <0>         0.0600 
     63 H13        34.8084  -20.7004   30.1677 H         1 <0>         0.0600 
     64 H14        34.7223  -20.0674   31.7967 H         1 <0>         0.0600 
     65 H15        33.2383  -20.4066   30.9150 H         1 <0>         0.0600 
     66 H16        30.2606  -26.7789   26.7161 H         1 <0>         0.1150 
     67 H17        36.9745  -19.3293   18.6003 H         1 <0>         0.1150 
     68 H18        28.8497  -24.7572   27.0692 H         1 <0>         0.1150 
     69 H19        32.4932  -26.5586   25.6487 H         1 <0>         0.1150 
     70 H20        37.5626  -20.7072   20.5852 H         1 <0>         0.1150 
     71 H21        35.5673  -17.2935   18.8706 H         1 <0>         0.1150 
     72 H22        29.6578  -22.5273   26.3350 H         1 <0>         0.1150 
     73 H23        33.3288  -24.3326   24.9470 H         1 <0>         0.1150 
     74 H24        36.7674  -20.0442   22.8406 H         1 <0>         0.1150 
     75 H25        34.7532  -16.6411   21.1226 H         1 <0>         0.1150 
     76 H26        37.4702  -25.0178   20.8638 H         1 <0>         0.0981 
     77 H27        37.0589  -19.1738   30.1555 H         1 <0>         0.2317 
     78 H28        35.3389  -27.9333   23.0010 H         1 <0>         0.1406 
     79 H29        33.2075  -21.9135   25.3222 H         1 <0>         0.0600 
     80 H30        31.8315  -21.1976   26.0139 H         1 <0>         0.0600 
     81 H31        35.3075  -16.7738   23.5824 H         1 <0>         0.0600 
     82 H32        35.9994  -18.2390   24.2401 H         1 <0>         0.0600 
     83 H33        34.1496  -16.6829   31.0317 H         1 <0>         0.0600 
     84 H34        34.5183  -17.8677   32.1970 H         1 <0>         0.0600 
     85 H35        35.8836  -22.6616   21.2602 H         1 <0>         0.0300 
     86 H36        35.1155  -23.4384   19.8908 H         1 <0>         0.0300 
     87 H37        33.5359  -19.5996   22.3728 H         1 <0>         0.1150 
     88 H38        39.8502  -14.9883   31.3965 H         1 <0>         0.0600 
     89 H39        32.4786  -14.8867   26.4379 H         1 <0>         0.0600 
     90 H40        30.6285  -21.6035   23.7555 H         1 <0>         0.0600 
     91 H41        31.1701  -19.6108   22.7005 H         1 <0>         0.0600 
     92 H42        32.1421  -17.2357   27.2354 H         1 <0>         0.0600 
     93 H43        31.6968  -22.5291   22.0393 H         1 <0>         0.3000 
     94 H44        33.9427  -16.4751   29.2814 H         1 <0>         0.2912 
     95 H45        32.4283  -18.1158   25.3846 H         1 <0>         0.3000 
     96 H46        30.1242  -19.3678   24.5810 H         1 <0>         0.4180 
@<TRIPOS>BOND
     1    1   29 1    
     2    1   51 1    
     3    1   52 1    
     4    1   53 1    
     5    2   29 1    
     6    2   54 1    
     7    2   55 1    
     8    2   56 1    
     9    3   30 1    
    10    3   57 1    
    11    3   58 1    
    12    3   59 1    
    13    4   30 1    
    14    4   60 1    
    15    4   61 1    
    16    4   62 1    
    17    5   43 1    
    18    5   63 1    
    19    5   64 1    
    20    5   65 1    
    21    6    8 ar   
    22    6    9 ar   
    23    6   66 1    
    24    7   10 ar   
    25    7   11 ar   
    26    7   67 1    
    27    8   12 ar   
    28    8   68 1    
    29    9   13 ar   
    30    9   69 1    
    31   10   14 ar   
    32   10   70 1    
    33   11   15 ar   
    34   11   71 1    
    35   12   24 ar   
    36   12   72 1    
    37   13   24 ar   
    38   13   73 1    
    39   14   25 ar   
    40   14   74 1    
    41   15   25 ar   
    42   15   75 1    
    43   16   26 2    
    44   16   38 1    
    45   16   76 1    
    46   17   27 2    
    47   17   49 1    
    48   17   77 1    
    49   18   38 2    
    50   18   50 1    
    51   18   78 1    
    52   19   24 1    
    53   19   31 1    
    54   19   79 1    
    55   19   80 1    
    56   20   25 1    
    57   20   34 1    
    58   20   81 1    
    59   20   82 1    
    60   21   27 1    
    61   21   43 1    
    62   21   83 1    
    63   21   84 1    
    64   22   26 1    
    65   22   48 1    
    66   22   85 1    
    67   22   86 1    
    68   23   32 1    
    69   23   34 2    
    70   23   87 1    
    71   26   50 1    
    72   27   39 1    
    73   28   29 1    
    74   28   39 2    
    75   28   49 1    
    76   29   88 1    
    77   30   33 1    
    78   30   89 1    
    79   31   32 1    
    80   31   40 1    
    81   31   90 1    
    82   32   44 1    
    83   32   91 1    
    84   33   35 1    
    85   33   41 1    
    86   33   92 1    
    87   34   42 1    
    88   35   42 am   BACKBONE|DICT|INTERRES
    89   35   45 2    
    90   36   41 am   BACKBONE|DICT|INTERRES
    91   36   43 am   BACKBONE|DICT|INTERRES
    92   36   46 2    
    93   37   40 am   BACKBONE|DICT|INTERRES
    94   37   47 2    
    95   37   48 1    
    96   40   93 1    
    97   41   94 1    
    98   42   95 1    
    99   44   96 1    
@<TRIPOS>SUBSTRUCTURE
     1 <0>         1 GROUP             0       ****    0 ROOT    
