@<TRIPOS>MOLECULE
KRJ_923_3KRJ
52   55    1
SMALL
USER_CHARGES


@<TRIPOS>ATOM
      1 C1          7.1922   31.6586   11.6955 C.ar      1 <0>        -0.1150 
      2 C2          7.6902   30.5834   10.9445 C.ar      1 <0>        -0.1150 
      3 C3          6.0820   32.5133    9.7106 C.ar      1 <0>        -0.1150 
      4 C4          9.2484   25.4615    7.0284 C.ar      1 <0>        -0.2860 
      5 C5          5.3285   30.9934    4.7299 C.3       1 <0>        -0.1200 
      6 C6          6.8107   31.2146    5.0204 C.3       1 <0>        -0.1200 
      7 C7          4.4906   31.8835    5.6519 C.3       1 <0>        -0.1200 
      8 C8          7.1338   30.8040    6.4576 C.3       1 <0>        -0.1200 
      9 C9          6.6254   34.2106   13.1309 C.3       1 <0>        -0.1200 
     10 C10         6.2408   35.6175   13.6083 C.3       1 <0>         0.1700 
     11 C11         4.1339   35.5812   12.3362 C.3       1 <0>         0.1700 
     12 C12         4.9518   31.8135    7.0975 C.2       1 <0>        -0.1150 
     13 C13         4.7123   34.4020   11.5668 C.2       1 <0>        -0.1150 
     14 C14         7.6902   25.5898    5.0562 C.1       1 <0>         0.3950 
     15 C15         6.3735   32.6305   11.0890 C.ar      1 <0>         0.0000 
     16 C16         7.3259   30.4144    9.5895 C.ar      1 <0>         0.0850 
     17 C17         6.5376   31.4100    8.9469 C.ar      1 <0>         0.0000 
     18 C18         8.2166   26.0131    6.3026 C.ar      1 <0>         0.2950 
     19 C19         8.3299   27.1126    8.1598 C.ar      1 <0>         0.2596 
     20 C20         6.1437   31.3217    7.5073 C.2       1 <0>         0.0000 
     21 C21         5.8454   33.7487   11.9056 C.2       1 <0>         0.0000 
     22 C22         8.0906   28.0349    9.2955 C.2       1 <0>         0.5934 
     23 N1          7.2363   25.2137    4.0639 N.1       1 <0>        -0.4300 
     24 N2          9.2906   26.1816    8.2101 N.pl3     1 <0>        -0.2570 
     25 N3          7.6540   27.0692    7.0161 N.2       1 <0>        -0.5630 
     26 N4          4.7729   35.7440   13.6618 N.4       1 <0>        -0.2000 
     27 N5          7.6901   29.2450    8.8733 N.am      1 <0>        -0.3850 
     28 O1          8.3819   27.7145   10.4490 O.2       1 <0>        -0.5000 
     29 H1          7.4538   31.7173   12.7419 H         1 <0>         0.1150 
     30 H2          8.3123   29.8701   11.4601 H         1 <0>         0.1150 
     31 H3          5.5062   33.2867    9.2277 H         1 <0>         0.1150 
     32 H4          9.9053   24.6264    6.8285 H         1 <0>         0.1870 
     33 H5          5.0734   29.9460    4.8946 H         1 <0>         0.0600 
     34 H6          5.1019   31.2127    3.6876 H         1 <0>         0.0600 
     35 H7          7.0541   32.2696    4.8958 H         1 <0>         0.0600 
     36 H8          7.4311   30.6579    4.3171 H         1 <0>         0.0600 
     37 H9          3.4383   31.6132    5.5827 H         1 <0>         0.0600 
     38 H10         4.5605   32.9231    5.3314 H         1 <0>         0.0600 
     39 H11         8.1227   31.1791    6.7087 H         1 <0>         0.0600 
     40 H12         7.1704   29.7178    6.4823 H         1 <0>         0.0600 
     41 H13         6.4877   33.4824   13.9318 H         1 <0>         0.0600 
     42 H14         7.6898   34.2161   12.8955 H         1 <0>         0.0600 
     43 H15         6.6672   35.8105   14.5936 H         1 <0>         0.0600 
     44 H16         6.6449   36.3731   12.9322 H         1 <0>         0.0600 
     45 H17         4.2730   36.4873   11.7452 H         1 <0>         0.0600 
     46 H18         3.0612   35.4406   12.4711 H         1 <0>         0.0600 
     47 H19         4.2468   32.2171    7.8084 H         1 <0>         0.1150 
     48 H20         4.1464   34.1088   10.6951 H         1 <0>         0.1150 
     49 H21         9.9111   26.0204    8.9944 H         1 <0>         0.3060 
     50 H22         4.5241   36.6446   14.0459 H         1 <0>         0.3100 
     51 H23         4.4253   35.0211   14.2766 H         1 <0>         0.3100 
     52 H24         7.5184   29.2841    7.8792 H         1 <0>         0.3000 
@<TRIPOS>BOND
     1    1    2 ar   
     2    1   15 ar   
     3    1   29 1    
     4    2   16 ar   
     5    2   30 1    
     6    3   15 ar   
     7    3   17 ar   
     8    3   31 1    
     9    4   18 ar   
    10    4   24 ar   
    11    4   32 1    
    12    5    6 1    
    13    5    7 1    
    14    5   33 1    
    15    5   34 1    
    16    6    8 1    
    17    6   35 1    
    18    6   36 1    
    19    7   12 1    
    20    7   37 1    
    21    7   38 1    
    22    8   20 1    
    23    8   39 1    
    24    8   40 1    
    25    9   10 1    
    26    9   21 1    
    27    9   41 1    
    28    9   42 1    
    29   10   26 1    
    30   10   43 1    
    31   10   44 1    
    32   11   13 1    
    33   11   26 1    
    34   11   45 1    
    35   11   46 1    
    36   12   20 2    
    37   12   47 1    
    38   13   21 2    
    39   13   48 1    
    40   14   18 1    
    41   14   23 3    
    42   15   21 1    
    43   16   17 ar   
    44   16   27 1    
    45   17   20 1    
    46   18   25 ar   
    47   19   22 1    
    48   19   24 ar   
    49   19   25 ar   
    50   22   27 am   BACKBONE|DICT|INTERRES
    51   22   28 2    
    52   24   49 1    
    53   26   50 1    
    54   26   51 1    
    55   27   52 1    
@<TRIPOS>SUBSTRUCTURE
     1 <0>         1 GROUP             0       ****    0 ROOT    
