@<TRIPOS>MOLECULE
*****
63   66    1
SMALL
USER_CHARGES


@<TRIPOS>ATOM
      1 C1         18.5915  -10.7767   69.5711 C.3       1 <0>        -0.1800 
      2 N1         17.0944   -9.2050   68.4341 N.pl3     1 <0>        -0.2800 
      3 S1         17.5989   -6.8933   66.9327 S.3       1 <0>         0.3159 
      4 C2         17.5109   -9.6919   69.7418 C.3       1 <0>         0.2000 
      5 N2         18.1190   -7.4680   69.3621 N.pl3     1 <0>        -0.3067 
      6 S2         19.3988   -6.0050   71.9237 S.3       1 <0>        -0.1750 
      7 C3         16.3025  -10.2615   70.5014 C.3       1 <0>        -0.1800 
      8 N3         20.8978   -7.7835   73.0718 N.pl3     1 <0>        -0.3409 
      9 C4         17.5756   -7.9795   68.2707 C.2       1 <0>         0.3838 
     10 N4         21.7983   -7.2191   70.9449 N.pl3     1 <0>        -0.3409 
     11 C5         18.3548   -5.7045   67.9704 C.2       1 <0>        -0.1765 
     12 C6         18.0833   -8.4417   70.4423 C.3       1 <0>         0.0025 
     13 C7         18.5482   -6.1420   69.2654 C.2       1 <0>        -0.0281 
     14 C8         19.1185   -5.2203   70.3160 C.3       1 <0>         0.1625 
     15 C9         20.8675   -7.0857   71.9274 C.2       1 <0>         0.3743 
     16 C10        21.7539   -8.9262   73.3932 C.3       1 <0>         0.2524 
     17 C11        21.5599   -9.2961   74.8747 C.3       1 <0>        -0.1200 
     18 C12        22.3298  -10.5680   75.2479 C.3       1 <0>        -0.1200 
     19 C13        21.9611  -11.7445   74.3360 C.3       1 <0>        -0.1200 
     20 C14        22.1929  -11.3797   72.8631 C.3       1 <0>        -0.1200 
     21 C15        21.3990  -10.1221   72.4826 C.3       1 <0>        -0.1200 
     22 C16        21.8786   -6.7421   69.5528 C.3       1 <0>         0.2524 
     23 C17        23.0212   -5.7327   69.3588 C.3       1 <0>        -0.1200 
     24 C18        24.3981   -6.4050   69.3807 C.3       1 <0>        -0.1200 
     25 C19        24.4705   -7.6044   68.4216 C.3       1 <0>        -0.1200 
     26 C20        23.3268   -8.6015   68.6724 C.3       1 <0>        -0.1200 
     27 C21        21.9666   -7.9209   68.5763 C.3       1 <0>        -0.1200 
     28 H1         19.0905   -8.6009   70.8277 H         1 <0>         0.0600 
     29 H2         17.4338   -8.0603   71.2314 H         1 <0>         0.0600 
     30 H3         18.4105   -4.4052   70.4339 H         1 <0>         0.0600 
     31 H4         20.0348   -4.7189   70.0340 H         1 <0>         0.0600 
     32 H5         22.6278   -7.7636   71.2002 H         1 <0>         0.3451 
     33 H6         20.9768   -6.2568   69.2572 H         1 <0>         0.0600 
     34 H7         21.7984   -7.5710   67.5575 H         1 <0>         0.0600 
     35 H8         21.1753   -8.6420   68.7835 H         1 <0>         0.0600 
     36 H9         23.3983   -9.0731   69.6339 H         1 <0>         0.0600 
     37 H10        23.3978   -9.4672   68.0336 H         1 <0>         0.0600 
     38 H11        25.4275   -8.1105   68.5348 H         1 <0>         0.0600 
     39 H12        24.4267   -7.2535   67.3896 H         1 <0>         0.0600 
     40 H13        24.6230   -6.7404   70.3937 H         1 <0>         0.0600 
     41 H14        25.1638   -5.6721   69.1279 H         1 <0>         0.0600 
     42 H15        22.9798   -4.9653   70.1329 H         1 <0>         0.0600 
     43 H16        22.8840   -5.2138   68.4090 H         1 <0>         0.0600 
     44 H17        20.1502   -7.5996   73.7262 H         1 <0>         0.3451 
     45 H18        22.7919   -8.6354   73.2341 H         1 <0>         0.0600 
     46 H19        20.3302  -10.3328   72.5446 H         1 <0>         0.0600 
     47 H20        21.6039   -9.8793   71.4399 H         1 <0>         0.0600 
     48 H21        23.2563  -11.2073   72.6867 H         1 <0>         0.0600 
     49 H22        21.9029  -12.2128   72.2222 H         1 <0>         0.0600 
     50 H23        22.5518  -12.6204   74.6050 H         1 <0>         0.0600 
     51 H24        20.9157  -12.0176   74.4899 H         1 <0>         0.0600 
     52 H25        23.3984  -10.3728   75.1759 H         1 <0>         0.0600 
     53 H26        22.1316  -10.8282   76.2882 H         1 <0>         0.0600 
     54 H27        21.8881   -8.4728   75.5105 H         1 <0>         0.0600 
     55 H28        20.4998   -9.4463   75.0873 H         1 <0>         0.0600 
     56 H29        18.5966   -4.7340   67.5648 H         1 <0>         0.2741 
     57 H30        16.7674   -9.8432   67.6826 H         1 <0>         0.3800 
     58 H31        18.9404  -11.1434   70.5369 H         1 <0>         0.0600 
     59 H32        18.2054  -11.6327   69.0151 H         1 <0>         0.0600 
     60 H33        19.4583  -10.3987   69.0279 H         1 <0>         0.0600 
     61 H34        16.5886  -10.6122   71.4934 H         1 <0>         0.0600 
     62 H35        15.5193   -9.5134   70.6280 H         1 <0>         0.0600 
     63 H36        15.8646  -11.1067   69.9684 H         1 <0>         0.0600 
@<TRIPOS>BOND
     1    1   58 1    
     2    1   59 1    
     3    1    4 1    
     4    1   60 1    
     5    2   57 1    
     6    2    4 1    
     7    2    9 1    
     8    3    9 1    
     9    3   11 1    
    10    4    7 1    
    11    4   12 1    
    12    5    9 2    
    13    5   12 1    
    14    5   13 1    
    15    6   14 1    
    16    6   15 1    
    17    7   61 1    
    18    7   62 1    
    19    7   63 1    
    20    8   15 2    
    21    8   44 1    
    22    8   16 1    
    23   10   22 1    
    24   10   15 1    
    25   10   32 1    
    26   11   13 2    
    27   11   56 1    
    28   12   29 1    
    29   12   28 1    
    30   13   14 1    
    31   14   30 1    
    32   14   31 1    
    33   16   21 1    
    34   16   45 1    
    35   16   17 1    
    36   17   54 1    
    37   17   55 1    
    38   17   18 1    
    39   18   19 1    
    40   18   53 1    
    41   18   52 1    
    42   19   20 1    
    43   19   51 1    
    44   19   50 1    
    45   20   21 1    
    46   20   49 1    
    47   20   48 1    
    48   21   47 1    
    49   21   46 1    
    50   22   23 1    
    51   22   27 1    
    52   22   33 1    
    53   23   24 1    
    54   23   42 1    
    55   23   43 1    
    56   24   40 1    
    57   24   25 1    
    58   24   41 1    
    59   25   38 1    
    60   25   39 1    
    61   25   26 1    
    62   26   37 1    
    63   26   36 1    
    64   26   27 1    
    65   27   35 1    
    66   27   34 1    
@<TRIPOS>SUBSTRUCTURE
     1 <0>         1 GROUP             0       ****    0 ROOT    
@<TRIPOS>MOLECULE
*****
63   66    1
SMALL
USER_CHARGES


@<TRIPOS>ATOM
      1 C1         16.1031   -6.0291   66.9359 C.3       1 <0>        -0.1800 
      2 N1         17.4819   -8.0060   67.4673 N.pl3     1 <0>        -0.2800 
      3 S1         17.7897  -10.0562   69.4106 S.3       1 <0>         0.3159 
      4 C2         17.4305   -6.5426   67.4863 C.3       1 <0>         0.2000 
      5 N2         17.7003   -7.5249   69.6082 N.pl3     1 <0>        -0.3067 
      6 S2         19.6973   -6.4156   72.2896 S.3       1 <0>        -0.1750 
      7 C3         18.5660   -5.9392   66.6645 C.3       1 <0>        -0.1800 
      8 N3         20.3980   -9.0089   72.1359 N.pl3     1 <0>        -0.3409 
      9 C4         17.6359   -8.4883   68.7050 C.2       1 <0>         0.3838 
     10 N4         21.7987   -7.5207   70.9122 N.pl3     1 <0>        -0.3409 
     11 C5         17.9533   -9.2971   70.9835 C.2       1 <0>        -0.1765 
     12 C6         17.5835   -6.2285   68.9781 C.3       1 <0>         0.0025 
     13 C7         17.8789   -7.9196   70.9318 C.2       1 <0>        -0.0281 
     14 C8         17.9891   -7.0203   72.1313 C.3       1 <0>         0.1625 
     15 C9         20.7444   -7.7774   71.7198 C.2       1 <0>         0.3743 
     16 C10        21.1227  -10.2325   71.8579 C.3       1 <0>         0.2524 
     17 C11        20.4919  -11.4030   72.6302 C.3       1 <0>        -0.1200 
     18 C12        21.1985  -12.7298   72.3064 C.3       1 <0>        -0.1200 
     19 C13        21.2085  -13.0013   70.7930 C.3       1 <0>        -0.1200 
     20 C14        21.8393  -11.8308   70.0207 C.3       1 <0>        -0.1200 
     21 C15        21.1327  -10.5040   70.3444 C.3       1 <0>        -0.1200 
     22 C16        21.8743   -6.8178   69.6161 C.3       1 <0>         0.2524 
     23 C17        22.8279   -5.6067   69.6229 C.3       1 <0>        -0.1200 
     24 C18        24.2986   -6.0550   69.6037 C.3       1 <0>        -0.1200 
     25 C19        24.5834   -6.9822   68.4105 C.3       1 <0>        -0.1200 
     26 C20        23.6321   -8.1903   68.4038 C.3       1 <0>        -0.1200 
     27 C21        22.1362   -7.7668   68.4293 C.3       1 <0>        -0.1200 
     28 H1         16.7146   -5.6975   69.3670 H         1 <0>         0.0600 
     29 H2         18.4755   -5.6332   69.1729 H         1 <0>         0.0600 
     30 H3         17.7410   -7.5744   73.0371 H         1 <0>         0.0600 
     31 H4         17.2935   -6.1824   72.0826 H         1 <0>         0.0600 
     32 H5         22.6971   -7.8495   71.2368 H         1 <0>         0.3451 
     33 H6         20.8705   -6.4154   69.4721 H         1 <0>         0.0600 
     34 H7         21.8855   -7.2522   67.5017 H         1 <0>         0.0600 
     35 H8         21.5000   -8.6509   68.4704 H         1 <0>         0.0600 
     36 H9         23.8341   -8.8202   69.2701 H         1 <0>         0.0600 
     37 H10        23.8213   -8.8078   67.5257 H         1 <0>         0.0600 
     38 H11        25.6181   -7.3238   68.4388 H         1 <0>         0.0600 
     39 H12        24.4711   -6.4227   67.4819 H         1 <0>         0.0600 
     40 H13        24.5360   -6.5717   70.5336 H         1 <0>         0.0600 
     41 H14        24.9525   -5.1839   69.5621 H         1 <0>         0.0600 
     42 H15        22.6387   -4.9892   70.5009 H         1 <0>         0.0600 
     43 H16        22.6259   -4.9768   68.7565 H         1 <0>         0.0600 
     44 H17        19.5878   -9.0992   72.7310 H         1 <0>         0.3451 
     45 H18        22.1423  -10.0703   72.2075 H         1 <0>         0.0600 
     46 H19        20.1091  -10.5337   69.9710 H         1 <0>         0.0600 
     47 H20        21.6251   -9.6834   69.8226 H         1 <0>         0.0600 
     48 H21        22.8969  -11.7534   70.2728 H         1 <0>         0.0600 
     49 H22        21.7937  -12.0247   68.9490 H         1 <0>         0.0600 
     50 H23        21.7643  -13.9165   70.5889 H         1 <0>         0.0600 
     51 H24        20.1922  -13.1754   70.4396 H         1 <0>         0.0600 
     52 H25        22.2221  -12.7001   72.6799 H         1 <0>         0.0600 
     53 H26        20.7062  -13.5503   72.8283 H         1 <0>         0.0600 
     54 H27        20.5504  -11.2088   73.7012 H         1 <0>         0.0600 
     55 H28        19.4313  -11.4782   72.3904 H         1 <0>         0.0600 
     56 H29        18.1053   -9.9222   71.8516 H         1 <0>         0.2741 
     57 H30        17.4092   -8.5586   66.6250 H         1 <0>         0.3800 
     58 H31        16.0401   -4.9424   67.0086 H         1 <0>         0.0600 
     59 H32        15.9779   -6.2928   65.8849 H         1 <0>         0.0600 
     60 H33        15.2540   -6.4416   67.4823 H         1 <0>         0.0600 
     61 H34        18.5759   -4.8514   66.7450 H         1 <0>         0.0600 
     62 H35        19.5390   -6.3011   66.9996 H         1 <0>         0.0600 
     63 H36        18.4700   -6.1885   65.6069 H         1 <0>         0.0600 
@<TRIPOS>BOND
     1    1   58 1    
     2    1   59 1    
     3    1    4 1    
     4    1   60 1    
     5    2   57 1    
     6    2    4 1    
     7    2    9 1    
     8    3    9 1    
     9    3   11 1    
    10    4    7 1    
    11    4   12 1    
    12    5    9 2    
    13    5   12 1    
    14    5   13 1    
    15    6   14 1    
    16    6   15 1    
    17    7   61 1    
    18    7   62 1    
    19    7   63 1    
    20    8   15 2    
    21    8   44 1    
    22    8   16 1    
    23   10   22 1    
    24   10   15 1    
    25   10   32 1    
    26   11   13 2    
    27   11   56 1    
    28   12   29 1    
    29   12   28 1    
    30   13   14 1    
    31   14   30 1    
    32   14   31 1    
    33   16   21 1    
    34   16   45 1    
    35   16   17 1    
    36   17   54 1    
    37   17   55 1    
    38   17   18 1    
    39   18   19 1    
    40   18   53 1    
    41   18   52 1    
    42   19   20 1    
    43   19   51 1    
    44   19   50 1    
    45   20   21 1    
    46   20   49 1    
    47   20   48 1    
    48   21   47 1    
    49   21   46 1    
    50   22   23 1    
    51   22   27 1    
    52   22   33 1    
    53   23   24 1    
    54   23   42 1    
    55   23   43 1    
    56   24   40 1    
    57   24   25 1    
    58   24   41 1    
    59   25   38 1    
    60   25   39 1    
    61   25   26 1    
    62   26   37 1    
    63   26   36 1    
    64   26   27 1    
    65   27   35 1    
    66   27   34 1    
@<TRIPOS>SUBSTRUCTURE
     1 <0>         1 GROUP             0       ****    0 ROOT    
@<TRIPOS>MOLECULE
*****
63   66    1
SMALL
USER_CHARGES


@<TRIPOS>ATOM
      1 C1         16.2494   -6.5073   73.1005 C.3       1 <0>        -0.1800 
      2 N1         17.5948   -5.6053   71.2341 N.pl3     1 <0>        -0.2800 
      3 S1         18.0630   -5.6996   68.4551 S.3       1 <0>         0.3159 
      4 C2         17.5451   -6.6349   72.2815 C.3       1 <0>         0.2000 
      5 N2         17.8151   -7.5534   70.1725 N.pl3     1 <0>        -0.3067 
      6 S2         19.2468  -10.5282   70.0227 S.3       1 <0>        -0.1750 
      7 C3         18.7799   -6.5329   73.1982 C.3       1 <0>        -0.1800 
      8 N3         20.9544   -8.6830   69.0275 N.pl3     1 <0>        -0.3409 
      9 C4         17.8192   -6.2340   70.0795 C.2       1 <0>         0.3838 
     10 N4         21.3987   -9.4356   71.2593 N.pl3     1 <0>        -0.3409 
     11 C5         18.1104   -7.3777   67.9438 C.2       1 <0>        -0.1765 
     12 C6         17.5730   -7.9813   71.5309 C.3       1 <0>         0.0025 
     13 C7         18.0085   -8.2671   68.9952 C.2       1 <0>        -0.0281 
     14 C8         18.0947   -9.7612   68.8341 C.3       1 <0>         0.1625 
     15 C9         20.6829   -9.4267   70.1179 C.2       1 <0>         0.3743 
     16 C10        21.9511   -7.6158   68.8411 C.3       1 <0>         0.2524 
     17 C11        22.0158   -6.6220   70.0095 C.3       1 <0>        -0.1200 
     18 C12        22.9944   -5.4991   69.6640 C.3       1 <0>        -0.1200 
     19 C13        24.3930   -6.0321   69.3428 C.3       1 <0>        -0.1200 
     20 C14        24.3404   -7.0315   68.1800 C.3       1 <0>        -0.1200 
     21 C15        23.3410   -8.1572   68.4771 C.3       1 <0>        -0.1200 
     22 C16        21.1288  -10.1919   72.4908 C.3       1 <0>         0.2524 
     23 C17        21.7449  -11.6020   72.4131 C.3       1 <0>        -0.1200 
     24 C18        21.5003  -12.3832   73.7143 C.3       1 <0>        -0.1200 
     25 C19        22.0625  -11.6193   74.9233 C.3       1 <0>        -0.1200 
     26 C20        21.4569  -10.2098   75.0162 C.3       1 <0>        -0.1200 
     27 C21        21.6760   -9.4264   73.7113 C.3       1 <0>        -0.1200 
     28 H1         16.6234   -8.5182   71.5580 H         1 <0>         0.0600 
     29 H2         18.3751   -8.6367   71.8658 H         1 <0>         0.0600 
     30 H3         18.4112  -10.0235   67.8248 H         1 <0>         0.0600 
     31 H4         17.1125  -10.2140   68.9673 H         1 <0>         0.0600 
     32 H5         22.3296   -9.0119   71.2342 H         1 <0>         0.3451 
     33 H6         20.0497  -10.2826   72.6169 H         1 <0>         0.0600 
     34 H7         21.1955   -8.4502   73.7868 H         1 <0>         0.0600 
     35 H8         22.7427   -9.2320   73.5839 H         1 <0>         0.0600 
     36 H9         21.8995   -9.6687   75.8541 H         1 <0>         0.0600 
     37 H10        20.3882  -10.2847   75.2248 H         1 <0>         0.0600 
     38 H11        23.1470  -11.5478   74.8339 H         1 <0>         0.0600 
     39 H12        21.8589  -12.1751   75.8392 H         1 <0>         0.0600 
     40 H13        21.9637  -13.3692   73.6522 H         1 <0>         0.0600 
     41 H14        20.4303  -12.5516   73.8495 H         1 <0>         0.0600 
     42 H15        22.8181  -11.5294   72.2236 H         1 <0>         0.0600 
     43 H16        21.3208  -12.1528   71.5738 H         1 <0>         0.0600 
     44 H17        20.3978   -8.8758   68.2076 H         1 <0>         0.3451 
     45 H18        21.5961   -7.0599   67.9712 H         1 <0>         0.0600 
     46 H19        23.7419   -8.8159   69.2343 H         1 <0>         0.0600 
     47 H20        23.2524   -8.8051   67.6341 H         1 <0>         0.0600 
     48 H21        24.0462   -6.5154   67.2646 H         1 <0>         0.0600 
     49 H22        25.3302   -7.4501   67.9973 H         1 <0>         0.0600 
     50 H23        25.0555   -5.2009   69.1021 H         1 <0>         0.0600 
     51 H24        24.8137   -6.5106   70.2280 H         1 <0>         0.0600 
     52 H25        22.6208   -4.9339   68.8091 H         1 <0>         0.0600 
     53 H26        23.0485   -4.8049   70.4988 H         1 <0>         0.0600 
     54 H27        21.0285   -6.2107   70.2227 H         1 <0>         0.0600 
     55 H28        22.3668   -7.0983   70.9232 H         1 <0>         0.0600 
     56 H29        18.2087   -7.6146   66.8910 H         1 <0>         0.2741 
     57 H30        17.7808   -4.6113   71.4671 H         1 <0>         0.3800 
     58 H31        16.1770   -7.2996   73.8449 H         1 <0>         0.0600 
     59 H32        16.1999   -5.5582   73.6319 H         1 <0>         0.0600 
     60 H33        15.3663   -6.5725   72.4640 H         1 <0>         0.0600 
     61 H34        18.7976   -7.3479   73.9215 H         1 <0>         0.0600 
     62 H35        19.7103   -6.5752   72.6296 H         1 <0>         0.0600 
     63 H36        18.7835   -5.6050   73.7673 H         1 <0>         0.0600 
@<TRIPOS>BOND
     1    1   58 1    
     2    1   59 1    
     3    1    4 1    
     4    1   60 1    
     5    2   57 1    
     6    2    4 1    
     7    2    9 1    
     8    3    9 1    
     9    3   11 1    
    10    4    7 1    
    11    4   12 1    
    12    5    9 2    
    13    5   12 1    
    14    5   13 1    
    15    6   14 1    
    16    6   15 1    
    17    7   61 1    
    18    7   62 1    
    19    7   63 1    
    20    8   15 2    
    21    8   44 1    
    22    8   16 1    
    23   10   22 1    
    24   10   15 1    
    25   10   32 1    
    26   11   13 2    
    27   11   56 1    
    28   12   29 1    
    29   12   28 1    
    30   13   14 1    
    31   14   30 1    
    32   14   31 1    
    33   16   21 1    
    34   16   45 1    
    35   16   17 1    
    36   17   54 1    
    37   17   55 1    
    38   17   18 1    
    39   18   19 1    
    40   18   53 1    
    41   18   52 1    
    42   19   20 1    
    43   19   51 1    
    44   19   50 1    
    45   20   21 1    
    46   20   49 1    
    47   20   48 1    
    48   21   47 1    
    49   21   46 1    
    50   22   23 1    
    51   22   27 1    
    52   22   33 1    
    53   23   24 1    
    54   23   42 1    
    55   23   43 1    
    56   24   40 1    
    57   24   25 1    
    58   24   41 1    
    59   25   38 1    
    60   25   39 1    
    61   25   26 1    
    62   26   37 1    
    63   26   36 1    
    64   26   27 1    
    65   27   35 1    
    66   27   34 1    
@<TRIPOS>SUBSTRUCTURE
     1 <0>         1 GROUP             0       ****    0 ROOT    
@<TRIPOS>MOLECULE
*****
63   66    1
SMALL
USER_CHARGES


@<TRIPOS>ATOM
      1 C1         18.4694  -14.3111   73.6315 C.3       1 <0>        -0.1800 
      2 N1         19.7984  -12.6140   74.8338 N.pl3     1 <0>        -0.2800 
      3 S1         20.8649   -9.9962   74.5431 S.3       1 <0>         0.3159 
      4 C2         19.8603  -13.8621   74.0702 C.3       1 <0>         0.2000 
      5 N2         21.0506  -12.0785   73.0995 N.pl3     1 <0>        -0.3067 
      6 S2         21.3919  -11.2709   69.7036 S.3       1 <0>        -0.1750 
      7 C3         20.4983  -14.9802   74.8898 C.3       1 <0>        -0.1800 
      8 N3         19.3320   -9.5545   69.9292 N.pl3     1 <0>        -0.3409 
      9 C4         20.4958  -11.6516   74.2211 C.2       1 <0>         0.3838 
     10 N4         21.4798   -8.5299   69.8218 N.pl3     1 <0>        -0.3409 
     11 C5         21.8146   -9.9545   73.0689 C.2       1 <0>        -0.1765 
     12 C6         20.7322  -13.4709   72.8726 C.3       1 <0>         0.0025 
     13 C7         21.8167  -11.1567   72.3903 C.2       1 <0>        -0.0281 
     14 C8         22.5497  -11.3994   71.1006 C.3       1 <0>         0.1625 
     15 C9         20.6719   -9.6149   69.8263 C.2       1 <0>         0.3743 
     16 C10        18.5394   -8.3424   69.9756 C.3       1 <0>         0.2524 
     17 C11        18.2757   -7.8329   68.5490 C.3       1 <0>        -0.1200 
     18 C12        17.3815   -6.5821   68.5600 C.3       1 <0>        -0.1200 
     19 C13        16.0653   -6.8443   69.3105 C.3       1 <0>        -0.1200 
     20 C14        16.3289   -7.3537   70.7372 C.3       1 <0>        -0.1200 
     21 C15        17.2232   -8.6046   70.7262 C.3       1 <0>        -0.1200 
     22 C16        21.2574   -7.1619   69.3130 C.3       1 <0>         0.2524 
     23 C17        21.6451   -6.0573   70.3159 C.3       1 <0>        -0.1200 
     24 C18        23.1720   -5.9038   70.4136 C.3       1 <0>        -0.1200 
     25 C19        23.7960   -5.6465   69.0319 C.3       1 <0>        -0.1200 
     26 C20        23.4092   -6.7483   68.0315 C.3       1 <0>        -0.1200 
     27 C21        21.8694   -6.9305   67.9167 C.3       1 <0>        -0.1200 
     28 H1         20.1949  -13.5859   71.9312 H         1 <0>         0.0600 
     29 H2         21.6456  -14.0643   72.8309 H         1 <0>         0.0600 
     30 H3         22.9749  -12.4035   71.0963 H         1 <0>         0.0600 
     31 H4         23.3840  -10.7110   70.9657 H         1 <0>         0.0600 
     32 H5         22.3908   -8.6529   70.2407 H         1 <0>         0.3451 
     33 H6         20.1755   -7.0961   69.1892 H         1 <0>         0.0600 
     34 H7         21.4265   -6.0358   67.4792 H         1 <0>         0.0600 
     35 H8         21.6416   -7.7496   67.2345 H         1 <0>         0.0600 
     36 H9         23.8534   -7.6949   68.3396 H         1 <0>         0.0600 
     37 H10        23.8238   -6.5212   67.0494 H         1 <0>         0.0600 
     38 H11        24.8810   -5.5842   69.1156 H         1 <0>         0.0600 
     39 H12        23.4619   -4.6787   68.6579 H         1 <0>         0.0600 
     40 H13        23.6035   -6.8056   70.8480 H         1 <0>         0.0600 
     41 H14        23.4211   -5.0879   71.0920 H         1 <0>         0.0600 
     42 H15        21.2305   -6.2845   71.2980 H         1 <0>         0.0600 
     43 H16        21.2009   -5.1108   70.0078 H         1 <0>         0.0600 
     44 H17        18.8159  -10.4218   69.9324 H         1 <0>         0.3451 
     45 H18        19.1328   -7.6095   70.5223 H         1 <0>         0.0600 
     46 H19        16.6912   -9.4308   70.2546 H         1 <0>         0.0600 
     47 H20        17.4341   -8.9199   71.7480 H         1 <0>         0.0600 
     48 H21        16.8051   -6.5684   71.3242 H         1 <0>         0.0600 
     49 H22        15.3842   -7.5763   71.2332 H         1 <0>         0.0600 
     50 H23        15.4784   -5.9267   69.3520 H         1 <0>         0.0600 
     51 H24        15.4625   -7.5684   68.7624 H         1 <0>         0.0600 
     52 H25        17.9135   -5.7558   69.0315 H         1 <0>         0.0600 
     53 H26        17.1705   -6.2667   67.5381 H         1 <0>         0.0600 
     54 H27        19.2230   -7.6015   68.0619 H         1 <0>         0.0600 
     55 H28        17.8096   -8.6182   67.9538 H         1 <0>         0.0600 
     56 H29        22.3230   -9.0394   72.8012 H         1 <0>         0.2741 
     57 H30        19.2931  -12.5127   75.7024 H         1 <0>         0.3800 
     58 H31        18.5219  -15.2059   73.0098 H         1 <0>         0.0600 
     59 H32        17.8372  -14.5467   74.4885 H         1 <0>         0.0600 
     60 H33        17.9622  -13.5401   73.0501 H         1 <0>         0.0600 
     61 H34        20.6184  -15.8861   74.2944 H         1 <0>         0.0600 
     62 H35        21.4860  -14.6952   75.2551 H         1 <0>         0.0600 
     63 H36        19.8894  -15.2368   75.7577 H         1 <0>         0.0600 
@<TRIPOS>BOND
     1    1   58 1    
     2    1   59 1    
     3    1    4 1    
     4    1   60 1    
     5    2   57 1    
     6    2    4 1    
     7    2    9 1    
     8    3    9 1    
     9    3   11 1    
    10    4    7 1    
    11    4   12 1    
    12    5    9 2    
    13    5   12 1    
    14    5   13 1    
    15    6   14 1    
    16    6   15 1    
    17    7   61 1    
    18    7   62 1    
    19    7   63 1    
    20    8   15 2    
    21    8   44 1    
    22    8   16 1    
    23   10   22 1    
    24   10   15 1    
    25   10   32 1    
    26   11   13 2    
    27   11   56 1    
    28   12   29 1    
    29   12   28 1    
    30   13   14 1    
    31   14   30 1    
    32   14   31 1    
    33   16   21 1    
    34   16   45 1    
    35   16   17 1    
    36   17   54 1    
    37   17   55 1    
    38   17   18 1    
    39   18   19 1    
    40   18   53 1    
    41   18   52 1    
    42   19   20 1    
    43   19   51 1    
    44   19   50 1    
    45   20   21 1    
    46   20   49 1    
    47   20   48 1    
    48   21   47 1    
    49   21   46 1    
    50   22   23 1    
    51   22   27 1    
    52   22   33 1    
    53   23   24 1    
    54   23   42 1    
    55   23   43 1    
    56   24   40 1    
    57   24   25 1    
    58   24   41 1    
    59   25   38 1    
    60   25   39 1    
    61   25   26 1    
    62   26   37 1    
    63   26   36 1    
    64   26   27 1    
    65   27   35 1    
    66   27   34 1    
@<TRIPOS>SUBSTRUCTURE
     1 <0>         1 GROUP             0       ****    0 ROOT    
@<TRIPOS>MOLECULE
*****
63   66    1
SMALL
USER_CHARGES


@<TRIPOS>ATOM
      1 C1         18.5384  -14.0997   73.6061 C.3       1 <0>        -0.1800 
      2 N1         20.1984  -12.8318   74.8361 N.pl3     1 <0>        -0.2800 
      3 S1         21.1038  -10.1783   74.6299 S.3       1 <0>         0.3159 
      4 C2         20.0426  -13.9140   73.8732 C.3       1 <0>         0.2000 
      5 N2         21.1329  -12.0869   72.9545 N.pl3     1 <0>        -0.3067 
      6 S2         20.8243  -11.0334   69.6985 S.3       1 <0>        -0.1750 
      7 C3         20.6611  -15.2047   74.4376 C.3       1 <0>        -0.1800 
      8 N3         19.4134   -8.9468   68.9365 N.pl3     1 <0>        -0.3409 
      9 C4         20.7487  -11.8079   74.1860 C.2       1 <0>         0.3838 
     10 N4         21.8279   -8.5617   69.2146 N.pl3     1 <0>        -0.3409 
     11 C5         21.7948   -9.9358   73.0369 C.2       1 <0>        -0.1765 
     12 C6         20.8001  -13.4458   72.6061 C.3       1 <0>         0.0025 
     13 C7         21.7420  -11.0631   72.2407 C.2       1 <0>        -0.0281 
     14 C8         22.2404  -11.1569   70.8265 C.3       1 <0>         0.1625 
     15 C9         20.6864   -9.2927   69.2392 C.2       1 <0>         0.3743 
     16 C10        18.7801   -7.6292   68.7472 C.3       1 <0>         0.2524 
     17 C11        17.7280   -7.7030   67.6294 C.3       1 <0>        -0.1200 
     18 C12        17.0199   -6.3539   67.4312 C.3       1 <0>        -0.1200 
     19 C13        16.3880   -5.8633   68.7429 C.3       1 <0>        -0.1200 
     20 C14        17.4324   -5.7952   69.8704 C.3       1 <0>        -0.1200 
     21 C15        18.1327   -7.1513   70.0609 C.3       1 <0>        -0.1200 
     22 C16        22.0409   -7.2696   68.5409 C.3       1 <0>         0.2524 
     23 C17        21.8662   -6.0787   69.4918 C.3       1 <0>        -0.1200 
     24 C18        23.1350   -5.7786   70.2964 C.3       1 <0>        -0.1200 
     25 C19        24.3716   -5.6383   69.4104 C.3       1 <0>        -0.1200 
     26 C20        24.5981   -6.9124   68.6065 C.3       1 <0>        -0.1200 
     27 C21        23.3658   -7.2044   67.7560 C.3       1 <0>        -0.1200 
     28 H1         20.1867  -13.4501   71.7043 H         1 <0>         0.0600 
     29 H2         21.7276  -13.9914   72.4245 H         1 <0>         0.0600 
     30 H3         22.7136  -12.1241   70.6626 H         1 <0>         0.0600 
     31 H4         22.9983  -10.4138   70.5975 H         1 <0>         0.0600 
     32 H5         22.6384   -8.9057   69.7192 H         1 <0>         0.3451 
     33 H6         21.2870   -7.2253   67.7574 H         1 <0>         0.0600 
     34 H7         23.2787   -6.4442   66.9784 H         1 <0>         0.0600 
     35 H8         23.5418   -8.1349   67.2366 H         1 <0>         0.0600 
     36 H9         24.8033   -7.7519   69.2692 H         1 <0>         0.0600 
     37 H10        25.4718   -6.8055   67.9646 H         1 <0>         0.0600 
     38 H11        25.2424   -5.4250   70.0273 H         1 <0>         0.0600 
     39 H12        24.2492   -4.7873   68.7405 H         1 <0>         0.0600 
     40 H13        23.2988   -6.5513   71.0470 H         1 <0>         0.0600 
     41 H14        22.9978   -4.8452   70.8340 H         1 <0>         0.0600 
     42 H15        21.0391   -6.2465   70.1828 H         1 <0>         0.0600 
     43 H16        21.5923   -5.2050   68.9035 H         1 <0>         0.0600 
     44 H17        18.7456   -9.7065   68.9528 H         1 <0>         0.3451 
     45 H18        19.5004   -6.8783   68.4533 H         1 <0>         0.0600 
     46 H19        17.4116   -7.8907   70.4125 H         1 <0>         0.0600 
     47 H20        18.8878   -7.0628   70.8419 H         1 <0>         0.0600 
     48 H21        18.1751   -5.0300   69.6373 H         1 <0>         0.0600 
     49 H22        16.9601   -5.4865   70.8036 H         1 <0>         0.0600 
     50 H23        15.9334   -4.8846   68.5934 H         1 <0>         0.0600 
     51 H24        15.5797   -6.5373   69.0330 H         1 <0>         0.0600 
     52 H25        17.7367   -5.6149   67.0698 H         1 <0>         0.0600 
     53 H26        16.2565   -6.4468   66.6569 H         1 <0>         0.0600 
     54 H27        18.1983   -8.0037   66.6928 H         1 <0>         0.0600 
     55 H28        16.9882   -8.4728   67.8555 H         1 <0>         0.0600 
     56 H29        22.1983   -8.9644   72.7924 H         1 <0>         0.2741 
     57 H30        19.4617  -12.7177   75.5379 H         1 <0>         0.3800 
     58 H31        18.3536  -14.8368   72.8339 H         1 <0>         0.0600 
     59 H32        18.0119  -14.4258   74.5014 H         1 <0>         0.0600 
     60 H33        18.0731  -13.1700   73.2755 H         1 <0>         0.0600 
     61 H34        20.6177  -16.0109   73.7057 H         1 <0>         0.0600 
     62 H35        21.7099  -15.0626   74.7044 H         1 <0>         0.0600 
     63 H36        20.1370  -15.5376   75.3342 H         1 <0>         0.0600 
@<TRIPOS>BOND
     1    1   58 1    
     2    1   59 1    
     3    1    4 1    
     4    1   60 1    
     5    2   57 1    
     6    2    4 1    
     7    2    9 1    
     8    3    9 1    
     9    3   11 1    
    10    4    7 1    
    11    4   12 1    
    12    5    9 2    
    13    5   12 1    
    14    5   13 1    
    15    6   14 1    
    16    6   15 1    
    17    7   61 1    
    18    7   62 1    
    19    7   63 1    
    20    8   15 2    
    21    8   44 1    
    22    8   16 1    
    23   10   22 1    
    24   10   15 1    
    25   10   32 1    
    26   11   13 2    
    27   11   56 1    
    28   12   29 1    
    29   12   28 1    
    30   13   14 1    
    31   14   30 1    
    32   14   31 1    
    33   16   21 1    
    34   16   45 1    
    35   16   17 1    
    36   17   54 1    
    37   17   55 1    
    38   17   18 1    
    39   18   19 1    
    40   18   53 1    
    41   18   52 1    
    42   19   20 1    
    43   19   51 1    
    44   19   50 1    
    45   20   21 1    
    46   20   49 1    
    47   20   48 1    
    48   21   47 1    
    49   21   46 1    
    50   22   23 1    
    51   22   27 1    
    52   22   33 1    
    53   23   24 1    
    54   23   42 1    
    55   23   43 1    
    56   24   40 1    
    57   24   25 1    
    58   24   41 1    
    59   25   38 1    
    60   25   39 1    
    61   25   26 1    
    62   26   37 1    
    63   26   36 1    
    64   26   27 1    
    65   27   35 1    
    66   27   34 1    
@<TRIPOS>SUBSTRUCTURE
     1 <0>         1 GROUP             0       ****    0 ROOT    
@<TRIPOS>MOLECULE
*****
63   66    1
SMALL
USER_CHARGES


@<TRIPOS>ATOM
      1 C1         18.2607  -13.9768   73.4951 C.3       1 <0>        -0.1800 
      2 N1         19.8071  -12.4618   74.6135 N.pl3     1 <0>        -0.2800 
      3 S1         20.7129   -9.8098   74.3476 S.3       1 <0>         0.3159 
      4 C2         19.7364  -13.6049   73.7078 C.3       1 <0>         0.2000 
      5 N2         20.7012  -11.7449   72.7011 N.pl3     1 <0>        -0.3067 
      6 S2         20.2809  -10.7575   69.4233 S.3       1 <0>        -0.1750 
      7 C3         20.5165  -14.7866   74.3111 C.3       1 <0>        -0.1800 
      8 N3         18.6564   -8.7849   68.6829 N.pl3     1 <0>        -0.3409 
      9 C4         20.3375  -11.4453   73.9350 C.2       1 <0>         0.3838 
     10 N4         20.8594   -8.1282   69.5359 N.pl3     1 <0>        -0.3409 
     11 C5         21.3744   -9.5923   72.7351 C.2       1 <0>        -0.1765 
     12 C6         20.3894  -13.1200   72.3873 C.3       1 <0>         0.0025 
     13 C7         21.2810  -10.7234   71.9541 C.2       1 <0>        -0.0281 
     14 C8         21.7358  -10.8179   70.5240 C.3       1 <0>         0.1625 
     15 C9         19.8906   -9.0072   69.1920 C.2       1 <0>         0.3743 
     16 C10        17.9371   -7.5130   68.5000 C.3       1 <0>         0.2524 
     17 C11        16.9197   -7.6039   67.3551 C.3       1 <0>        -0.1200 
     18 C12        16.1702   -6.2742   67.1689 C.3       1 <0>        -0.1200 
     19 C13        15.4864   -5.8377   68.4747 C.3       1 <0>        -0.1200 
     20 C14        16.4984   -5.7580   69.6332 C.3       1 <0>        -0.1200 
     21 C15        17.2445   -7.0880   69.8094 C.3       1 <0>        -0.1200 
     22 C16        20.8952   -6.6669   69.3740 C.3       1 <0>         0.2524 
     23 C17        21.8349   -6.0057   70.3889 C.3       1 <0>        -0.1200 
     24 C18        23.3167   -6.1544   70.0236 C.3       1 <0>        -0.1200 
     25 C19        23.5963   -5.6323   68.6211 C.3       1 <0>        -0.1200 
     26 C20        22.7390   -6.3921   67.6032 C.3       1 <0>        -0.1200 
     27 C21        21.2392   -6.2714   67.9233 C.3       1 <0>        -0.1200 
     28 H1         19.7140  -13.1453   71.5301 H         1 <0>         0.0600 
     29 H2         21.3185  -13.6405   72.1413 H         1 <0>         0.0600 
     30 H3         22.2388  -11.7710   70.3594 H         1 <0>         0.0600 
     31 H4         22.4675  -10.0499   70.2705 H         1 <0>         0.0600 
     32 H5         21.7466   -8.5205   69.8174 H         1 <0>         0.3451 
     33 H6         19.9131   -6.2879   69.6312 H         1 <0>         0.0600 
     34 H7         20.9124   -5.2508   67.7339 H         1 <0>         0.0600 
     35 H8         20.6823   -6.8989   67.2320 H         1 <0>         0.0600 
     36 H9         23.0261   -7.4458   67.6038 H         1 <0>         0.0600 
     37 H10        22.9368   -6.0178   66.5967 H         1 <0>         0.0600 
     38 H11        24.6502   -5.7758   68.4050 H         1 <0>         0.0600 
     39 H12        23.4004   -4.5619   68.5646 H         1 <0>         0.0600 
     40 H13        23.6031   -7.2045   70.0408 H         1 <0>         0.0600 
     41 H14        23.9381   -5.6428   70.7584 H         1 <0>         0.0600 
     42 H15        21.6606   -6.4050   71.3893 H         1 <0>         0.0600 
     43 H16        21.5863   -4.9456   70.4356 H         1 <0>         0.0600 
     44 H17        18.1008   -9.6051   68.4676 H         1 <0>         0.3451 
     45 H18        18.6322   -6.7373   68.1857 H         1 <0>         0.0600 
     46 H19        16.5418   -7.8619   70.1246 H         1 <0>         0.0600 
     47 H20        17.9750   -6.9931   70.6122 H         1 <0>         0.0600 
     48 H21        17.2226   -4.9651   69.4391 H         1 <0>         0.0600 
     49 H22        15.9893   -5.4897   70.5610 H         1 <0>         0.0600 
     50 H23        14.9929   -4.8766   68.3378 H         1 <0>         0.0600 
     51 H24        14.7016   -6.5521   68.7291 H         1 <0>         0.0600 
     52 H25        16.8696   -5.5031   66.8477 H         1 <0>         0.0600 
     53 H26        15.4309   -6.3734   66.3726 H         1 <0>         0.0600 
     54 H27        17.4499   -7.8461   66.4358 H         1 <0>         0.0600 
     55 H28        16.2074   -8.4101   67.5296 H         1 <0>         0.0600 
     56 H29        21.8020   -8.6379   72.4641 H         1 <0>         0.2741 
     57 H30        19.1338  -12.3867   75.3850 H         1 <0>         0.3800 
     58 H31        18.1579  -14.8136   72.8177 H         1 <0>         0.0600 
     59 H32        17.7812  -14.2527   74.4345 H         1 <0>         0.0600 
     60 H33        17.6961  -13.1433   73.0764 H         1 <0>         0.0600 
     61 H34        20.5216  -15.6388   73.6344 H         1 <0>         0.0600 
     62 H35        21.5543  -14.5206   74.5066 H         1 <0>         0.0600 
     63 H36        20.0744  -15.1118   75.2537 H         1 <0>         0.0600 
@<TRIPOS>BOND
     1    1   58 1    
     2    1   59 1    
     3    1    4 1    
     4    1   60 1    
     5    2   57 1    
     6    2    4 1    
     7    2    9 1    
     8    3    9 1    
     9    3   11 1    
    10    4    7 1    
    11    4   12 1    
    12    5    9 2    
    13    5   12 1    
    14    5   13 1    
    15    6   14 1    
    16    6   15 1    
    17    7   61 1    
    18    7   62 1    
    19    7   63 1    
    20    8   15 2    
    21    8   44 1    
    22    8   16 1    
    23   10   22 1    
    24   10   15 1    
    25   10   32 1    
    26   11   13 2    
    27   11   56 1    
    28   12   29 1    
    29   12   28 1    
    30   13   14 1    
    31   14   30 1    
    32   14   31 1    
    33   16   21 1    
    34   16   45 1    
    35   16   17 1    
    36   17   54 1    
    37   17   55 1    
    38   17   18 1    
    39   18   19 1    
    40   18   53 1    
    41   18   52 1    
    42   19   20 1    
    43   19   51 1    
    44   19   50 1    
    45   20   21 1    
    46   20   49 1    
    47   20   48 1    
    48   21   47 1    
    49   21   46 1    
    50   22   23 1    
    51   22   27 1    
    52   22   33 1    
    53   23   24 1    
    54   23   42 1    
    55   23   43 1    
    56   24   40 1    
    57   24   25 1    
    58   24   41 1    
    59   25   38 1    
    60   25   39 1    
    61   25   26 1    
    62   26   37 1    
    63   26   36 1    
    64   26   27 1    
    65   27   35 1    
    66   27   34 1    
@<TRIPOS>SUBSTRUCTURE
     1 <0>         1 GROUP             0       ****    0 ROOT    
@<TRIPOS>MOLECULE
*****
63   66    1
SMALL
USER_CHARGES


@<TRIPOS>ATOM
      1 C1         18.2948  -14.3759   73.6515 C.3       1 <0>        -0.1800 
      2 N1         19.7987  -12.8506   74.8339 N.pl3     1 <0>        -0.2800 
      3 S1         20.1569  -10.1017   74.3850 S.3       1 <0>         0.3159 
      4 C2         19.7650  -13.9941   73.9211 C.3       1 <0>         0.2000 
      5 N2         20.5110  -12.0864   72.8579 N.pl3     1 <0>        -0.3067 
      6 S2         20.1249  -10.9638   69.3443 S.3       1 <0>        -0.1750 
      7 C3         20.5436  -15.1728   74.5328 C.3       1 <0>        -0.1800 
      8 N3         18.3583   -9.0742   68.7188 N.pl3     1 <0>        -0.3409 
      9 C4         20.1193  -11.7943   74.0845 C.2       1 <0>         0.3838 
     10 N4         20.3947   -8.1619   69.5129 N.pl3     1 <0>        -0.3409 
     11 C5         20.7463   -9.8589   72.7479 C.2       1 <0>        -0.1765 
     12 C6         20.4369  -13.4971   72.6207 C.3       1 <0>         0.0025 
     13 C7         20.8976  -11.0379   72.0370 C.2       1 <0>        -0.0281 
     14 C8         21.4148  -11.2149   70.6233 C.3       1 <0>         0.1625 
     15 C9         19.6052   -9.2183   69.2083 C.2       1 <0>         0.3743 
     16 C10        17.6700   -7.7916   68.4994 C.3       1 <0>         0.2524 
     17 C11        18.2037   -7.0989   67.2324 C.3       1 <0>        -0.1200 
     18 C12        17.4744   -5.7782   66.9555 C.3       1 <0>        -0.1200 
     19 C13        15.9632   -6.0139   66.8348 C.3       1 <0>        -0.1200 
     20 C14        15.4096   -6.6917   68.0976 C.3       1 <0>        -0.1200 
     21 C15        16.1492   -8.0062   68.4047 C.3       1 <0>        -0.1200 
     22 C16        21.7979   -8.0772   69.9199 C.3       1 <0>         0.2524 
     23 C17        22.7843   -8.3224   68.7614 C.3       1 <0>        -0.1200 
     24 C18        23.0374   -7.0752   67.9036 C.3       1 <0>        -0.1200 
     25 C19        23.4367   -5.8811   68.7625 C.3       1 <0>        -0.1200 
     26 C20        22.3528   -5.6051   69.8006 C.3       1 <0>        -0.1200 
     27 C21        22.0837   -6.7972   70.7075 C.3       1 <0>        -0.1200 
     28 H1         19.8398  -13.6345   71.7191 H         1 <0>         0.0600 
     29 H2         21.4483  -13.8813   72.4727 H         1 <0>         0.0600 
     30 H3         21.7083  -12.2580   70.5053 H         1 <0>         0.0600 
     31 H4         22.3563  -10.7148   70.4173 H         1 <0>         0.0600 
     32 H5         19.9991   -7.2538   69.3142 H         1 <0>         0.3451 
     33 H6         21.9386   -8.8349   70.6609 H         1 <0>         0.0600 
     34 H7         22.9592   -6.9295   71.3487 H         1 <0>         0.0600 
     35 H8         21.2576   -6.5648   71.3823 H         1 <0>         0.0600 
     36 H9         21.4328   -5.2838   69.3123 H         1 <0>         0.0600 
     37 H10        22.6800   -4.7922   70.4348 H         1 <0>         0.0600 
     38 H11        23.5801   -4.9994   68.1347 H         1 <0>         0.0600 
     39 H12        24.3887   -6.0820   69.2547 H         1 <0>         0.0600 
     40 H13        22.1429   -6.8356   67.3297 H         1 <0>         0.0600 
     41 H14        23.8299   -7.2738   67.1823 H         1 <0>         0.0600 
     42 H15        22.4277   -9.1223   68.1153 H         1 <0>         0.0600 
     43 H16        23.7324   -8.6705   69.1715 H         1 <0>         0.0600 
     44 H17        17.8893   -9.8898   68.3344 H         1 <0>         0.3451 
     45 H18        17.8666   -7.1502   69.3592 H         1 <0>         0.0600 
     46 H19        15.9260   -8.7394   67.6286 H         1 <0>         0.0600 
     47 H20        15.7752   -8.4282   69.3385 H         1 <0>         0.0600 
     48 H21        15.5012   -6.0126   68.9471 H         1 <0>         0.0600 
     49 H22        14.3431   -6.8878   67.9734 H         1 <0>         0.0600 
     50 H23        15.4518   -5.0691   66.6542 H         1 <0>         0.0600 
     51 H24        15.7587   -6.6437   65.9680 H         1 <0>         0.0600 
     52 H25        17.6761   -5.0645   67.7545 H         1 <0>         0.0600 
     53 H26        17.8574   -5.3368   66.0347 H         1 <0>         0.0600 
     54 H27        19.2744   -6.9137   67.3080 H         1 <0>         0.0600 
     55 H28        18.0732   -7.7657   66.3817 H         1 <0>         0.0600 
     56 H29        20.9454   -8.8447   72.4429 H         1 <0>         0.2741 
     57 H30        19.0693  -12.8050   75.5679 H         1 <0>         0.3800 
     58 H31        18.2070  -15.2049   72.9557 H         1 <0>         0.0600 
     59 H32        17.7888  -14.6682   74.5739 H         1 <0>         0.0600 
     60 H33        17.7426  -13.5351   73.2283 H         1 <0>         0.0600 
     61 H34        20.5980  -16.0083   73.8365 H         1 <0>         0.0600 
     62 H35        21.5678  -14.8877   74.7822 H         1 <0>         0.0600 
     63 H36        20.0675  -15.5349   75.4454 H         1 <0>         0.0600 
@<TRIPOS>BOND
     1    1   58 1    
     2    1   59 1    
     3    1    4 1    
     4    1   60 1    
     5    2   57 1    
     6    2    4 1    
     7    2    9 1    
     8    3    9 1    
     9    3   11 1    
    10    4    7 1    
    11    4   12 1    
    12    5    9 2    
    13    5   12 1    
    14    5   13 1    
    15    6   14 1    
    16    6   15 1    
    17    7   61 1    
    18    7   62 1    
    19    7   63 1    
    20    8   15 2    
    21    8   44 1    
    22    8   16 1    
    23   10   22 1    
    24   10   15 1    
    25   10   32 1    
    26   11   13 2    
    27   11   56 1    
    28   12   29 1    
    29   12   28 1    
    30   13   14 1    
    31   14   30 1    
    32   14   31 1    
    33   16   21 1    
    34   16   45 1    
    35   16   17 1    
    36   17   54 1    
    37   17   55 1    
    38   17   18 1    
    39   18   19 1    
    40   18   53 1    
    41   18   52 1    
    42   19   20 1    
    43   19   51 1    
    44   19   50 1    
    45   20   21 1    
    46   20   49 1    
    47   20   48 1    
    48   21   47 1    
    49   21   46 1    
    50   22   23 1    
    51   22   27 1    
    52   22   33 1    
    53   23   24 1    
    54   23   42 1    
    55   23   43 1    
    56   24   40 1    
    57   24   25 1    
    58   24   41 1    
    59   25   38 1    
    60   25   39 1    
    61   25   26 1    
    62   26   37 1    
    63   26   36 1    
    64   26   27 1    
    65   27   35 1    
    66   27   34 1    
@<TRIPOS>SUBSTRUCTURE
     1 <0>         1 GROUP             0       ****    0 ROOT    
@<TRIPOS>MOLECULE
*****
63   66    1
SMALL
USER_CHARGES


@<TRIPOS>ATOM
      1 C1         19.8512  -14.3797   73.9732 C.3       1 <0>        -0.1800 
      2 N1         18.5630  -12.2904   74.0342 N.pl3     1 <0>        -0.2800 
      3 S1         16.6542  -10.5875   72.8548 S.3       1 <0>         0.3159 
      4 C2         19.8124  -12.8929   73.5802 C.3       1 <0>         0.2000 
      5 N2         18.6538  -11.8150   71.8742 N.pl3     1 <0>        -0.3067 
      6 S2         20.1906  -10.4926   69.2341 S.3       1 <0>        -0.1750 
      7 C3         21.0035  -12.1511   74.2154 C.3       1 <0>        -0.1800 
      8 N3         18.5212   -8.5249   68.4352 N.pl3     1 <0>        -0.3409 
      9 C4         18.0182  -11.6326   73.0162 C.2       1 <0>         0.3838 
     10 N4         20.8122   -7.9483   69.1373 N.pl3     1 <0>        -0.3409 
     11 C5         17.0012  -10.4619   71.1373 C.2       1 <0>        -0.1765 
     12 C6         19.7970  -12.6898   72.0464 C.3       1 <0>         0.0025 
     13 C7         18.0994  -11.2059   70.7550 C.2       1 <0>        -0.0281 
     14 C8         18.5980  -11.3519   69.3523 C.3       1 <0>         0.1625 
     15 C9         19.7753   -8.7741   68.8853 C.2       1 <0>         0.3743 
     16 C10        17.7986   -7.2555   68.2623 C.3       1 <0>         0.2524 
     17 C11        18.1046   -6.5744   66.9160 C.3       1 <0>        -0.1200 
     18 C12        17.3793   -5.2248   66.8340 C.3       1 <0>        -0.1200 
     19 C13        15.8604   -5.4312   66.9467 C.3       1 <0>        -0.1200 
     20 C14        15.4984   -6.1694   68.2448 C.3       1 <0>        -0.1200 
     21 C15        16.2804   -7.4878   68.3786 C.3       1 <0>        -0.1200 
     22 C16        20.9781   -6.5011   68.9477 C.3       1 <0>         0.2524 
     23 C17        21.6684   -5.8822   70.1697 C.3       1 <0>        -0.1200 
     24 C18        23.1878   -6.1020   70.1704 C.3       1 <0>        -0.1200 
     25 C19        23.8437   -5.6364   68.8710 C.3       1 <0>        -0.1200 
     26 C20        23.2348   -6.3926   67.6893 C.3       1 <0>        -0.1200 
     27 C21        21.7155   -6.1816   67.6300 C.3       1 <0>        -0.1200 
     28 H1         19.6074  -13.6047   71.4910 H         1 <0>         0.0600 
     29 H2         20.6941  -12.2041   71.6611 H         1 <0>         0.0600 
     30 H3         17.8804  -11.0020   68.6113 H         1 <0>         0.0600 
     31 H4         18.7646  -12.4057   69.1300 H         1 <0>         0.0600 
     32 H5         21.6542   -8.4039   69.4660 H         1 <0>         0.3451 
     33 H6         19.9955   -6.0481   68.8979 H         1 <0>         0.0600 
     34 H7         21.5050   -5.1532   67.3373 H         1 <0>         0.0600 
     35 H8         21.3194   -6.8048   66.8341 H         1 <0>         0.0600 
     36 H9         23.4574   -7.4572   67.7761 H         1 <0>         0.0600 
     37 H10        23.6915   -6.0597   66.7564 H         1 <0>         0.0600 
     38 H11        24.9180   -5.8173   68.9165 H         1 <0>         0.0600 
     39 H12        23.7119   -4.5613   68.7456 H         1 <0>         0.0600 
     40 H13        23.3852   -7.1635   70.2947 H         1 <0>         0.0600 
     41 H14        23.6441   -5.6067   71.0251 H         1 <0>         0.0600 
     42 H15        21.2503   -6.2955   71.0890 H         1 <0>         0.0600 
     43 H16        21.4477   -4.8158   70.2097 H         1 <0>         0.0600 
     44 H17        18.0126   -9.3208   68.0678 H         1 <0>         0.3451 
     45 H18        18.0748   -6.5989   69.0853 H         1 <0>         0.0600 
     46 H19        15.9530   -8.1856   67.6040 H         1 <0>         0.0600 
     47 H20        16.0421   -7.9474   69.3364 H         1 <0>         0.0600 
     48 H21        15.7197   -5.5332   69.1026 H         1 <0>         0.0600 
     49 H22        14.4262   -6.3683   68.2711 H         1 <0>         0.0600 
     50 H23        15.3485   -4.4700   66.9080 H         1 <0>         0.0600 
     51 H24        15.5045   -6.0070   66.0896 H         1 <0>         0.0600 
     52 H25        17.7300   -4.5678   67.6323 H         1 <0>         0.0600 
     53 H26        17.6283   -4.7211   65.9018 H         1 <0>         0.0600 
     54 H27        19.1679   -6.4176   66.7809 H         1 <0>         0.0600 
     55 H28        17.7862   -7.2128   66.0891 H         1 <0>         0.0600 
     56 H29        16.3445   -9.8840   70.5059 H         1 <0>         0.2741 
     57 H30        18.1981  -12.4053   74.9910 H         1 <0>         0.3800 
     58 H31        20.7684  -14.8570   73.6271 H         1 <0>         0.0600 
     59 H32        19.8036  -14.5035   75.0570 H         1 <0>         0.0600 
     60 H33        19.0084  -14.9245   73.5463 H         1 <0>         0.0600 
     61 H34        21.9531  -12.5677   73.8782 H         1 <0>         0.0600 
     62 H35        21.0010  -11.0912   73.9573 H         1 <0>         0.0600 
     63 H36        20.9806  -12.2210   75.3047 H         1 <0>         0.0600 
@<TRIPOS>BOND
     1    1   58 1    
     2    1   59 1    
     3    1    4 1    
     4    1   60 1    
     5    2   57 1    
     6    2    4 1    
     7    2    9 1    
     8    3    9 1    
     9    3   11 1    
    10    4    7 1    
    11    4   12 1    
    12    5    9 2    
    13    5   12 1    
    14    5   13 1    
    15    6   14 1    
    16    6   15 1    
    17    7   61 1    
    18    7   62 1    
    19    7   63 1    
    20    8   15 2    
    21    8   44 1    
    22    8   16 1    
    23   10   22 1    
    24   10   15 1    
    25   10   32 1    
    26   11   13 2    
    27   11   56 1    
    28   12   29 1    
    29   12   28 1    
    30   13   14 1    
    31   14   30 1    
    32   14   31 1    
    33   16   21 1    
    34   16   45 1    
    35   16   17 1    
    36   17   54 1    
    37   17   55 1    
    38   17   18 1    
    39   18   19 1    
    40   18   53 1    
    41   18   52 1    
    42   19   20 1    
    43   19   51 1    
    44   19   50 1    
    45   20   21 1    
    46   20   49 1    
    47   20   48 1    
    48   21   47 1    
    49   21   46 1    
    50   22   23 1    
    51   22   27 1    
    52   22   33 1    
    53   23   24 1    
    54   23   42 1    
    55   23   43 1    
    56   24   40 1    
    57   24   25 1    
    58   24   41 1    
    59   25   38 1    
    60   25   39 1    
    61   25   26 1    
    62   26   37 1    
    63   26   36 1    
    64   26   27 1    
    65   27   35 1    
    66   27   34 1    
@<TRIPOS>SUBSTRUCTURE
     1 <0>         1 GROUP             0       ****    0 ROOT    
