@<TRIPOS>MOLECULE
BB2_501_1LRU
62   62    1
SMALL
USER_CHARGES


@<TRIPOS>ATOM
      1 C1        -34.0456   27.9801   63.0759 C.3       1 <0>        -0.1800 
      2 C2        -28.3738   25.9706   65.8572 C.3       1 <0>        -0.1800 
      3 C3        -28.2411   23.8401   64.4999 C.3       1 <0>        -0.1800 
      4 C4        -33.8758   23.4319   66.5129 C.3       1 <0>        -0.1200 
      5 C5        -34.2238   24.6712   67.3143 C.3       1 <0>        -0.1200 
      6 C6        -32.5612   23.8033   65.8276 C.3       1 <0>        -0.0500 
      7 C7        -34.2091   27.4042   61.6671 C.3       1 <0>        -0.1200 
      8 C8        -32.9129   26.8070   61.0964 C.3       1 <0>        -0.1200 
      9 C9        -31.8168   27.8546   60.8145 C.3       1 <0>        -0.1200 
     10 C10       -30.5658   27.2897   60.1067 C.3       1 <0>        -0.1200 
     11 C11       -33.5027   27.1329   67.2461 C.3       1 <0>         0.1450 
     12 C12       -28.1966   26.3267   60.2000 C.3       1 <0>        -0.1200 
     13 C13       -33.7025   25.8239   66.4483 C.3       1 <0>         0.0100 
     14 C14       -29.1754   24.7966   65.2636 C.3       1 <0>        -0.0600 
     15 C15       -29.4015   26.8364   61.0245 C.3       1 <0>        -0.0600 
     16 C16       -30.3904   25.2463   64.4020 C.3       1 <0>         0.1400 
     17 C17       -27.3811   27.4248   59.5147 C.2       1 <0>         0.5000 
     18 C18       -29.8288   25.7392   62.0095 C.2       1 <0>         0.5000 
     19 C19       -31.5068   25.9795   65.1833 C.2       1 <0>         0.5000 
     20 N1        -29.9511   26.0995   63.2945 N.am      1 <0>        -0.5000 
     21 N2        -27.0094   27.1825   58.2533 N.am      1 <0>        -0.2244 
     22 N3        -32.4962   25.2701   65.7908 N.am      1 <0>        -0.1400 
     23 O1        -34.6050   27.4139   68.0899 O.3       1 <0>        -0.6830 
     24 O2        -25.8177   27.8226   57.8531 O.3       1 <0>        -0.4375 
     25 O3        -27.0092   28.4192   60.1382 O.2       1 <0>        -0.5000 
     26 O4        -30.0500   24.5979   61.6024 O.2       1 <0>        -0.5000 
     27 O5        -31.4682   27.2113   65.2066 O.2       1 <0>        -0.5000 
     28 H1        -35.0081   28.2814   63.4866 H         1 <0>         0.0600 
     29 H2        -33.3873   28.8493   63.0920 H         1 <0>         0.0600 
     30 H3        -33.6399   27.2295   63.7505 H         1 <0>         0.0600 
     31 H4        -27.9091   26.5796   65.0811 H         1 <0>         0.0600 
     32 H5        -29.0116   26.6232   66.4497 H         1 <0>         0.0600 
     33 H6        -27.5791   25.6110   66.5122 H         1 <0>         0.0600 
     34 H7        -27.7325   24.3441   63.6773 H         1 <0>         0.0600 
     35 H8        -27.4757   23.4299   65.1598 H         1 <0>         0.0600 
     36 H9        -28.7953   22.9984   64.0833 H         1 <0>         0.0600 
     37 H10       -34.6446   23.2562   65.7590 H         1 <0>         0.0600 
     38 H11       -33.8086   22.5377   67.1338 H         1 <0>         0.0600 
     39 H12       -35.2905   24.7463   67.5269 H         1 <0>         0.0600 
     40 H13       -33.6951   24.6498   68.2687 H         1 <0>         0.0600 
     41 H14       -32.5290   23.3527   64.8356 H         1 <0>         0.0600 
     42 H15       -31.7162   23.4235   66.4024 H         1 <0>         0.0600 
     43 H16       -34.9673   26.6219   61.7202 H         1 <0>         0.0600 
     44 H17       -34.6052   28.1660   60.9951 H         1 <0>         0.0600 
     45 H18       -32.5490   26.0424   61.7815 H         1 <0>         0.0600 
     46 H19       -33.1500   26.2878   60.1676 H         1 <0>         0.0600 
     47 H20       -32.2495   28.6233   60.1720 H         1 <0>         0.0600 
     48 H21       -31.5221   28.3640   61.7326 H         1 <0>         0.0600 
     49 H22       -30.8516   26.4810   59.4325 H         1 <0>         0.0600 
     50 H23       -30.1798   28.0780   59.4583 H         1 <0>         0.0600 
     51 H24       -32.6090   27.0488   67.8530 H         1 <0>         0.0600 
     52 H25       -33.3671   27.9876   66.5837 H         1 <0>         0.0600 
     53 H26       -27.5014   25.7836   60.8428 H         1 <0>         0.0600 
     54 H27       -28.5397   25.6065   59.4546 H         1 <0>         0.0600 
     55 H28       -34.4364   26.0089   65.6610 H         1 <0>         0.0600 
     56 H29       -29.5687   24.2240   66.1053 H         1 <0>         0.0600 
     57 H30       -29.0823   27.6978   61.6151 H         1 <0>         0.0600 
     58 H31       -30.8308   24.3523   63.9633 H         1 <0>         0.0600 
     59 H32       -29.7988   27.0710   63.5328 H         1 <0>         0.3000 
     60 H33       -27.1839   26.3406   57.7208 H         1 <0>         0.3000 
     61 H34       -35.3740   27.5111   67.5460 H         1 <0>         0.4180 
     62 H35       -25.6352   28.3903   58.5912 H         1 <0>         0.3619 
@<TRIPOS>BOND
     1    1    7 1    
     2    1   28 1    
     3    1   29 1    
     4    1   30 1    
     5    2   14 1    
     6    2   31 1    
     7    2   32 1    
     8    2   33 1    
     9    3   14 1    
    10    3   34 1    
    11    3   35 1    
    12    3   36 1    
    13    4    5 1    
    14    4    6 1    
    15    4   37 1    
    16    4   38 1    
    17    5   13 1    
    18    5   39 1    
    19    5   40 1    
    20    6   22 1    
    21    6   41 1    
    22    6   42 1    
    23    7    8 1    
    24    7   43 1    
    25    7   44 1    
    26    8    9 1    
    27    8   45 1    
    28    8   46 1    
    29    9   10 1    
    30    9   47 1    
    31    9   48 1    
    32   10   15 1    
    33   10   49 1    
    34   10   50 1    
    35   11   13 1    
    36   11   23 1    
    37   11   51 1    
    38   11   52 1    
    39   12   15 1    
    40   12   17 1    
    41   12   53 1    
    42   12   54 1    
    43   13   22 1    
    44   13   55 1    
    45   14   16 1    
    46   14   56 1    
    47   15   18 1    
    48   15   57 1    
    49   16   19 1    
    50   16   20 1    
    51   16   58 1    
    52   17   21 am   BACKBONE|DICT|INTERRES
    53   17   25 2    
    54   18   20 am   BACKBONE|DICT|INTERRES
    55   18   26 2    
    56   19   22 am   BACKBONE|DICT|INTERRES
    57   19   27 2    
    58   20   59 1    
    59   21   24 1    
    60   21   60 1    
    61   23   61 1    
    62   24   62 1    
@<TRIPOS>SUBSTRUCTURE
     1 <0>         1 GROUP             0       ****    0 ROOT    
@<TRIPOS>MOLECULE
BB2_501_1LRU
62   62    1
SMALL
USER_CHARGES


@<TRIPOS>ATOM
      1 C1        -35.0161   28.9417   60.1374 C.3       1 <0>        -0.1800 
      2 C2        -27.9411   25.8537   65.9989 C.3       1 <0>        -0.1800 
      3 C3        -27.4633   23.8427   64.5366 C.3       1 <0>        -0.1800 
      4 C4        -33.7126   22.9201   65.0108 C.3       1 <0>        -0.1200 
      5 C5        -34.1688   23.7371   66.2154 C.3       1 <0>        -0.1200 
      6 C6        -32.2440   23.3099   64.8256 C.3       1 <0>        -0.0500 
      7 C7        -33.8772   28.0116   60.5694 C.3       1 <0>        -0.1200 
      8 C8        -32.8869   28.6958   61.5226 C.3       1 <0>        -0.1200 
      9 C9        -31.7172   27.7807   61.9113 C.3       1 <0>        -0.1200 
     10 C10       -30.7406   27.5443   60.7435 C.3       1 <0>        -0.1200 
     11 C11       -33.0027   25.5512   67.5363 C.3       1 <0>         0.1450 
     12 C12       -28.5831   26.4780   59.9068 C.3       1 <0>        -0.1200 
     13 C13       -33.3267   25.0134   66.1454 C.3       1 <0>         0.0100 
     14 C14       -28.5445   24.6102   65.3165 C.3       1 <0>        -0.0600 
     15 C15       -29.4038   26.8857   61.1559 C.3       1 <0>        -0.0600 
     16 C16       -29.8005   24.9234   64.4521 C.3       1 <0>         0.1400 
     17 C17       -27.7233   27.6156   59.3403 C.2       1 <0>         0.5000 
     18 C18       -29.6394   25.6660   62.0627 C.2       1 <0>         0.5000 
     19 C19       -31.0056   25.4397   65.2669 C.2       1 <0>         0.5000 
     20 N1        -29.4824   25.8665   63.3785 N.am      1 <0>        -0.5000 
     21 N2        -27.7989   27.8238   58.0186 N.am      1 <0>        -0.2244 
     22 N3        -32.1222   24.6413   65.4087 N.am      1 <0>        -0.1400 
     23 O1        -34.1421   26.0925   68.1750 O.3       1 <0>        -0.6830 
     24 O2        -26.6935   28.4965   57.4561 O.3       1 <0>        -0.4375 
     25 O3        -26.9718   28.2520   60.0804 O.2       1 <0>        -0.5000 
     26 O4        -29.9371   24.5768   61.5731 O.2       1 <0>        -0.5000 
     27 O5        -30.9338   26.5548   65.7890 O.2       1 <0>        -0.5000 
     28 H1        -35.7015   28.4289   59.4623 H         1 <0>         0.0600 
     29 H2        -34.6320   29.8197   59.6173 H         1 <0>         0.0600 
     30 H3        -35.5917   29.2857   60.9972 H         1 <0>         0.0600 
     31 H4        -27.5578   26.5679   65.2699 H         1 <0>         0.0600 
     32 H5        -28.6768   26.3701   66.6157 H         1 <0>         0.0600 
     33 H6        -27.1119   25.5763   66.6501 H         1 <0>         0.0600 
     34 H7        -27.0234   24.4535   63.7492 H         1 <0>         0.0600 
     35 H8        -26.6535   23.5292   65.1959 H         1 <0>         0.0600 
     36 H9        -27.8733   22.9455   64.0722 H         1 <0>         0.0600 
     37 H10       -34.2838   23.2163   64.1310 H         1 <0>         0.0600 
     38 H11       -33.8510   21.8478   65.1489 H         1 <0>         0.0600 
     39 H12       -35.2403   23.9371   66.2107 H         1 <0>         0.0600 
     40 H13       -33.9377   23.1959   67.1328 H         1 <0>         0.0600 
     41 H14       -31.9539   23.2944   63.7750 H         1 <0>         0.0600 
     42 H15       -31.5914   22.6239   65.3656 H         1 <0>         0.0600 
     43 H16       -34.2983   27.1282   61.0509 H         1 <0>         0.0600 
     44 H17       -33.3480   27.6573   59.6840 H         1 <0>         0.0600 
     45 H18       -32.4984   29.6006   61.0533 H         1 <0>         0.0600 
     46 H19       -33.4128   29.0162   62.4230 H         1 <0>         0.0600 
     47 H20       -31.1777   28.2202   62.7512 H         1 <0>         0.0600 
     48 H21       -32.1156   26.8291   62.2651 H         1 <0>         0.0600 
     49 H22       -31.2295   26.9426   59.9756 H         1 <0>         0.0600 
     50 H23       -30.5276   28.5059   60.2751 H         1 <0>         0.0600 
     51 H24       -32.5712   24.7791   68.1732 H         1 <0>         0.0600 
     52 H25       -32.2524   26.3385   67.4579 H         1 <0>         0.0600 
     53 H26       -27.9598   25.6099   60.1292 H         1 <0>         0.0600 
     54 H27       -29.2596   26.1654   59.1109 H         1 <0>         0.0600 
     55 H28       -33.8518   25.7948   65.5961 H         1 <0>         0.0600 
     56 H29       -28.8621   23.9439   66.1195 H         1 <0>         0.0600 
     57 H30       -28.8356   27.6323   61.7142 H         1 <0>         0.0600 
     58 H31       -30.1181   23.9966   63.9744 H         1 <0>         0.0600 
     59 H32       -29.1082   26.7561   63.6771 H         1 <0>         0.3000 
     60 H33       -28.2437   27.2250   57.3374 H         1 <0>         0.3000 
     61 H34       -34.8086   25.4237   68.2194 H         1 <0>         0.4180 
     62 H35       -27.0032   28.7235   56.5904 H         1 <0>         0.3619 
@<TRIPOS>BOND
     1    1    7 1    
     2    1   28 1    
     3    1   29 1    
     4    1   30 1    
     5    2   14 1    
     6    2   31 1    
     7    2   32 1    
     8    2   33 1    
     9    3   14 1    
    10    3   34 1    
    11    3   35 1    
    12    3   36 1    
    13    4    5 1    
    14    4    6 1    
    15    4   37 1    
    16    4   38 1    
    17    5   13 1    
    18    5   39 1    
    19    5   40 1    
    20    6   22 1    
    21    6   41 1    
    22    6   42 1    
    23    7    8 1    
    24    7   43 1    
    25    7   44 1    
    26    8    9 1    
    27    8   45 1    
    28    8   46 1    
    29    9   10 1    
    30    9   47 1    
    31    9   48 1    
    32   10   15 1    
    33   10   49 1    
    34   10   50 1    
    35   11   13 1    
    36   11   23 1    
    37   11   51 1    
    38   11   52 1    
    39   12   15 1    
    40   12   17 1    
    41   12   53 1    
    42   12   54 1    
    43   13   22 1    
    44   13   55 1    
    45   14   16 1    
    46   14   56 1    
    47   15   18 1    
    48   15   57 1    
    49   16   19 1    
    50   16   20 1    
    51   16   58 1    
    52   17   21 am   BACKBONE|DICT|INTERRES
    53   17   25 2    
    54   18   20 am   BACKBONE|DICT|INTERRES
    55   18   26 2    
    56   19   22 am   BACKBONE|DICT|INTERRES
    57   19   27 2    
    58   20   59 1    
    59   21   24 1    
    60   21   60 1    
    61   23   61 1    
    62   24   62 1    
@<TRIPOS>SUBSTRUCTURE
     1 <0>         1 GROUP             0       ****    0 ROOT    
@<TRIPOS>MOLECULE
BB2_501_1LRU
62   62    1
SMALL
USER_CHARGES


@<TRIPOS>ATOM
      1 C1        -35.1297   28.8094   60.2022 C.3       1 <0>        -0.1800 
      2 C2        -27.8669   26.0142   65.9160 C.3       1 <0>        -0.1800 
      3 C3        -27.3942   23.8170   64.7500 C.3       1 <0>        -0.1800 
      4 C4        -33.5391   22.7296   64.8538 C.3       1 <0>        -0.1200 
      5 C5        -34.0657   23.5118   66.0528 C.3       1 <0>        -0.1200 
      6 C6        -32.0895   23.1982   64.7056 C.3       1 <0>        -0.0500 
      7 C7        -33.8204   28.0411   60.4127 C.3       1 <0>        -0.1200 
      8 C8        -32.9124   28.7002   61.4608 C.3       1 <0>        -0.1200 
      9 C9        -31.7406   27.7984   61.8739 C.3       1 <0>        -0.1200 
     10 C10       -30.7351   27.5768   60.7280 C.3       1 <0>        -0.1200 
     11 C11       -33.0284   25.3747   67.4127 C.3       1 <0>         0.1450 
     12 C12       -28.5677   26.4997   59.9316 C.3       1 <0>        -0.1200 
     13 C13       -33.2913   24.8314   66.0111 C.3       1 <0>         0.0100 
     14 C14       -28.4789   24.7017   65.3880 C.3       1 <0>        -0.0600 
     15 C15       -29.4092   26.9121   61.1652 C.3       1 <0>        -0.0600 
     16 C16       -29.7038   24.9192   64.4525 C.3       1 <0>         0.1400 
     17 C17       -27.7336   27.6474   59.3473 C.2       1 <0>         0.5000 
     18 C18       -29.6671   25.6942   62.0683 C.2       1 <0>         0.5000 
     19 C19       -30.9766   25.3872   65.1900 C.2       1 <0>         0.5000 
     20 N1        -29.3836   25.8500   63.3688 N.am      1 <0>        -0.5000 
     21 N2        -27.8014   27.8233   58.0205 N.am      1 <0>        -0.2244 
     22 N3        -32.0521   24.5296   65.3002 N.am      1 <0>        -0.1400 
     23 O1        -34.2009   25.8918   68.0102 O.3       1 <0>        -0.6830 
     24 O2        -26.6982   28.4927   57.4498 O.3       1 <0>        -0.4375 
     25 O3        -27.0072   28.3208   60.0796 O.2       1 <0>        -0.5000 
     26 O4        -30.0940   24.6445   61.5878 O.2       1 <0>        -0.5000 
     27 O5        -30.9950   26.5186   65.6805 O.2       1 <0>        -0.5000 
     28 H1        -35.7522   28.3184   59.4539 H         1 <0>         0.0600 
     29 H2        -34.9390   29.8270   59.8601 H         1 <0>         0.0600 
     30 H3        -35.7052   28.8682   61.1265 H         1 <0>         0.0600 
     31 H4        -27.4483   26.6172   65.1100 H         1 <0>         0.0600 
     32 H5        -28.6074   26.6219   66.4363 H         1 <0>         0.0600 
     33 H6        -27.0619   25.8115   66.6229 H         1 <0>         0.0600 
     34 H7        -26.9198   24.3087   63.9015 H         1 <0>         0.0600 
     35 H8        -26.6097   23.5800   65.4690 H         1 <0>         0.0600 
     36 H9        -27.8112   22.8733   64.3974 H         1 <0>         0.0600 
     37 H10       -34.1049   23.0020   63.9629 H         1 <0>         0.0600 
     38 H11       -33.6234   21.6504   64.9815 H         1 <0>         0.0600 
     39 H12       -35.1460   23.6547   66.0245 H         1 <0>         0.0600 
     40 H13       -33.8273   22.9763   66.9718 H         1 <0>         0.0600 
     41 H14       -31.7749   23.2064   63.6620 H         1 <0>         0.0600 
     42 H15       -31.4139   22.5435   65.2561 H         1 <0>         0.0600 
     43 H16       -34.0490   27.0190   60.7167 H         1 <0>         0.0600 
     44 H17       -33.2903   27.9688   59.4622 H         1 <0>         0.0600 
     45 H18       -32.5242   29.6396   61.0648 H         1 <0>         0.0600 
     46 H19       -33.5022   28.9565   62.3418 H         1 <0>         0.0600 
     47 H20       -31.2257   28.2425   62.7267 H         1 <0>         0.0600 
     48 H21       -32.1353   26.8412   62.2166 H         1 <0>         0.0600 
     49 H22       -31.2047   26.9853   59.9403 H         1 <0>         0.0600 
     50 H23       -30.5102   28.5443   60.2776 H         1 <0>         0.0600 
     51 H24       -32.6042   24.6111   68.0645 H         1 <0>         0.0600 
     52 H25       -32.2923   26.1773   67.3612 H         1 <0>         0.0600 
     53 H26       -27.9236   25.6535   60.1775 H         1 <0>         0.0600 
     54 H27       -29.2290   26.1523   59.1374 H         1 <0>         0.0600 
     55 H28       -33.8445   25.5882   65.4548 H         1 <0>         0.0600 
     56 H29       -28.8327   24.1549   66.2628 H         1 <0>         0.0600 
     57 H30       -28.8478   27.6565   61.7334 H         1 <0>         0.0600 
     58 H31       -29.9438   23.9633   63.9871 H         1 <0>         0.0600 
     59 H32       -28.9003   26.6923   63.6469 H         1 <0>         0.3000 
     60 H33       -28.2360   27.2044   57.3507 H         1 <0>         0.3000 
     61 H34       -34.8511   25.2064   68.0401 H         1 <0>         0.4180 
     62 H35       -27.0086   28.7083   56.5814 H         1 <0>         0.3619 
@<TRIPOS>BOND
     1    1    7 1    
     2    1   28 1    
     3    1   29 1    
     4    1   30 1    
     5    2   14 1    
     6    2   31 1    
     7    2   32 1    
     8    2   33 1    
     9    3   14 1    
    10    3   34 1    
    11    3   35 1    
    12    3   36 1    
    13    4    5 1    
    14    4    6 1    
    15    4   37 1    
    16    4   38 1    
    17    5   13 1    
    18    5   39 1    
    19    5   40 1    
    20    6   22 1    
    21    6   41 1    
    22    6   42 1    
    23    7    8 1    
    24    7   43 1    
    25    7   44 1    
    26    8    9 1    
    27    8   45 1    
    28    8   46 1    
    29    9   10 1    
    30    9   47 1    
    31    9   48 1    
    32   10   15 1    
    33   10   49 1    
    34   10   50 1    
    35   11   13 1    
    36   11   23 1    
    37   11   51 1    
    38   11   52 1    
    39   12   15 1    
    40   12   17 1    
    41   12   53 1    
    42   12   54 1    
    43   13   22 1    
    44   13   55 1    
    45   14   16 1    
    46   14   56 1    
    47   15   18 1    
    48   15   57 1    
    49   16   19 1    
    50   16   20 1    
    51   16   58 1    
    52   17   21 am   BACKBONE|DICT|INTERRES
    53   17   25 2    
    54   18   20 am   BACKBONE|DICT|INTERRES
    55   18   26 2    
    56   19   22 am   BACKBONE|DICT|INTERRES
    57   19   27 2    
    58   20   59 1    
    59   21   24 1    
    60   21   60 1    
    61   23   61 1    
    62   24   62 1    
@<TRIPOS>SUBSTRUCTURE
     1 <0>         1 GROUP             0       ****    0 ROOT    
@<TRIPOS>MOLECULE
BB2_501_1LRU
62   62    1
SMALL
USER_CHARGES


@<TRIPOS>ATOM
      1 C1        -35.0147   28.9310   60.1790 C.3       1 <0>        -0.1800 
      2 C2        -28.0994   26.1151   65.9680 C.3       1 <0>        -0.1800 
      3 C3        -27.3752   23.9276   64.9435 C.3       1 <0>        -0.1800 
      4 C4        -33.6048   22.6615   64.8288 C.3       1 <0>        -0.1200 
      5 C5        -34.0693   23.4369   66.0507 C.3       1 <0>        -0.1200 
      6 C6        -32.1590   23.1137   64.6230 C.3       1 <0>        -0.0500 
      7 C7        -33.8918   27.9648   60.5670 C.3       1 <0>        -0.1200 
      8 C8        -32.8780   28.6277   61.5061 C.3       1 <0>        -0.1200 
      9 C9        -31.6919   27.7382   61.8876 C.3       1 <0>        -0.1200 
     10 C10       -30.7135   27.4615   60.7213 C.3       1 <0>        -0.1200 
     11 C11       -33.0604   25.3522   67.4208 C.3       1 <0>         0.1450 
     12 C12       -28.4604   26.4945   59.9440 C.3       1 <0>        -0.1200 
     13 C13       -33.2749   24.7495   66.0087 C.3       1 <0>         0.0100 
     14 C14       -28.5736   24.7452   65.4519 C.3       1 <0>        -0.0600 
     15 C15       -29.3660   26.8363   61.1537 C.3       1 <0>        -0.0600 
     16 C16       -29.7119   24.7948   64.3887 C.3       1 <0>         0.1400 
     17 C17       -27.7052   27.7006   59.3747 C.2       1 <0>         0.5000 
     18 C18       -29.5927   25.5933   62.0284 C.2       1 <0>         0.5000 
     19 C19       -31.0261   25.2930   65.0415 C.2       1 <0>         0.5000 
     20 N1        -29.3405   25.7393   63.3358 N.am      1 <0>        -0.5000 
     21 N2        -27.8093   27.8967   58.0501 N.am      1 <0>        -0.2244 
     22 N3        -32.0351   24.4196   65.2790 N.am      1 <0>        -0.1400 
     23 O1        -34.2899   25.7745   67.9733 O.3       1 <0>        -0.6830 
     24 O2        -26.7490   28.6209   57.4540 O.3       1 <0>        -0.4375 
     25 O3        -27.0094   28.3957   60.1151 O.2       1 <0>        -0.5000 
     26 O4        -30.0262   24.5524   61.5300 O.2       1 <0>        -0.5000 
     27 O5        -31.1184   26.4855   65.3368 O.2       1 <0>        -0.5000 
     28 H1        -35.6963   28.4845   59.4563 H         1 <0>         0.0600 
     29 H2        -34.6110   29.8226   59.7073 H         1 <0>         0.0600 
     30 H3        -35.5959   29.2390   61.0488 H         1 <0>         0.0600 
     31 H4        -27.7675   26.7662   65.1616 H         1 <0>         0.0600 
     32 H5        -28.8892   26.6232   66.5168 H         1 <0>         0.0600 
     33 H6        -27.2623   26.0037   66.6545 H         1 <0>         0.0600 
     34 H7        -26.9078   24.3991   64.0805 H         1 <0>         0.0600 
     35 H8        -26.6173   23.8216   65.7170 H         1 <0>         0.0600 
     36 H9        -27.6811   22.9228   64.6461 H         1 <0>         0.0600 
     37 H10       -34.2069   22.9466   63.9639 H         1 <0>         0.0600 
     38 H11       -33.6963   21.5811   64.9491 H         1 <0>         0.0600 
     39 H12       -35.1491   23.5947   66.0537 H         1 <0>         0.0600 
     40 H13       -33.8160   22.8705   66.9467 H         1 <0>         0.0600 
     41 H14       -31.9435   23.1787   63.5535 H         1 <0>         0.0600 
     42 H15       -31.4557   22.3989   65.0531 H         1 <0>         0.0600 
     43 H16       -34.3150   27.0841   61.0526 H         1 <0>         0.0600 
     44 H17       -33.3960   27.6137   59.6624 H         1 <0>         0.0600 
     45 H18       -32.4970   29.5386   61.0533 H         1 <0>         0.0600 
     46 H19       -33.3908   28.9386   62.4190 H         1 <0>         0.0600 
     47 H20       -31.1461   28.2227   62.6961 H         1 <0>         0.0600 
     48 H21       -32.0706   26.8026   62.3035 H         1 <0>         0.0600 
     49 H22       -31.1994   26.8176   59.9871 H         1 <0>         0.0600 
     50 H23       -30.5077   28.4029   60.2071 H         1 <0>         0.0600 
     51 H24       -32.6095   24.6237   68.0925 H         1 <0>         0.0600 
     52 H25       -32.4072   26.2213   67.4096 H         1 <0>         0.0600 
     53 H26       -27.7056   25.7600   60.2310 H         1 <0>         0.0600 
     54 H27       -29.0563   26.0191   59.1659 H         1 <0>         0.0600 
     55 H28       -33.8151   25.4684   65.3900 H         1 <0>         0.0600 
     56 H29       -28.9656   24.2224   66.3239 H         1 <0>         0.0600 
     57 H30       -28.8524   27.5709   61.7763 H         1 <0>         0.0600 
     58 H31       -29.8253   23.7990   63.9696 H         1 <0>         0.0600 
     59 H32       -29.0191   26.6435   63.6537 H         1 <0>         0.3000 
     60 H33       -28.1882   27.2095   57.4084 H         1 <0>         0.3000 
     61 H34       -34.8812   25.0355   67.9877 H         1 <0>         0.4180 
     62 H35       -27.0655   28.8467   56.5873 H         1 <0>         0.3619 
@<TRIPOS>BOND
     1    1    7 1    
     2    1   28 1    
     3    1   29 1    
     4    1   30 1    
     5    2   14 1    
     6    2   31 1    
     7    2   32 1    
     8    2   33 1    
     9    3   14 1    
    10    3   34 1    
    11    3   35 1    
    12    3   36 1    
    13    4    5 1    
    14    4    6 1    
    15    4   37 1    
    16    4   38 1    
    17    5   13 1    
    18    5   39 1    
    19    5   40 1    
    20    6   22 1    
    21    6   41 1    
    22    6   42 1    
    23    7    8 1    
    24    7   43 1    
    25    7   44 1    
    26    8    9 1    
    27    8   45 1    
    28    8   46 1    
    29    9   10 1    
    30    9   47 1    
    31    9   48 1    
    32   10   15 1    
    33   10   49 1    
    34   10   50 1    
    35   11   13 1    
    36   11   23 1    
    37   11   51 1    
    38   11   52 1    
    39   12   15 1    
    40   12   17 1    
    41   12   53 1    
    42   12   54 1    
    43   13   22 1    
    44   13   55 1    
    45   14   16 1    
    46   14   56 1    
    47   15   18 1    
    48   15   57 1    
    49   16   19 1    
    50   16   20 1    
    51   16   58 1    
    52   17   21 am   BACKBONE|DICT|INTERRES
    53   17   25 2    
    54   18   20 am   BACKBONE|DICT|INTERRES
    55   18   26 2    
    56   19   22 am   BACKBONE|DICT|INTERRES
    57   19   27 2    
    58   20   59 1    
    59   21   24 1    
    60   21   60 1    
    61   23   61 1    
    62   24   62 1    
@<TRIPOS>SUBSTRUCTURE
     1 <0>         1 GROUP             0       ****    0 ROOT    
@<TRIPOS>MOLECULE
BB2_501_1LRU
62   62    1
SMALL
USER_CHARGES


@<TRIPOS>ATOM
      1 C1        -34.9105   28.8512   60.2114 C.3       1 <0>        -0.1800 
      2 C2        -28.1326   26.0090   66.1984 C.3       1 <0>        -0.1800 
      3 C3        -27.6837   23.8221   65.0371 C.3       1 <0>        -0.1800 
      4 C4        -33.8104   23.1860   65.5820 C.3       1 <0>        -0.1200 
      5 C5        -34.2403   24.2377   66.5868 C.3       1 <0>        -0.1200 
      6 C6        -32.3711   23.5633   65.2431 C.3       1 <0>        -0.0500 
      7 C7        -33.6992   27.9650   60.5159 C.3       1 <0>        -0.1200 
      8 C8        -32.7238   28.6377   61.4850 C.3       1 <0>        -0.1200 
      9 C9        -31.5415   27.7565   61.8992 C.3       1 <0>        -0.1200 
     10 C10       -30.4891   27.5143   60.7876 C.3       1 <0>        -0.1200 
     11 C11       -33.1714   26.3785   67.4645 C.3       1 <0>         0.1450 
     12 C12       -28.2237   26.4319   60.1518 C.3       1 <0>        -0.1200 
     13 C13       -33.4286   25.4917   66.2196 C.3       1 <0>         0.0100 
     14 C14       -28.7757   24.7468   65.6042 C.3       1 <0>        -0.0600 
     15 C15       -29.1665   26.8742   61.2948 C.3       1 <0>        -0.0600 
     16 C16       -29.8907   25.0184   64.5592 C.3       1 <0>         0.1400 
     17 C17       -27.5148   27.5689   59.4125 C.2       1 <0>         0.5000 
     18 C18       -29.4563   25.6742   62.2017 C.2       1 <0>         0.5000 
     19 C19       -31.1317   25.7152   65.1892 C.2       1 <0>         0.5000 
     20 N1        -29.3708   25.9000   63.5160 N.am      1 <0>        -0.5000 
     21 N2        -27.4099   27.4235   58.0881 N.am      1 <0>        -0.2244 
     22 N3        -32.2093   24.9809   65.5595 N.am      1 <0>        -0.1400 
     23 O1        -34.3800   26.8187   68.0482 O.3       1 <0>        -0.6830 
     24 O2        -26.4448   28.2234   57.4535 O.3       1 <0>        -0.4375 
     25 O3        -27.0097   28.5102   60.0234 O.2       1 <0>        -0.5000 
     26 O4        -29.7935   24.5922   61.7162 O.2       1 <0>        -0.5000 
     27 O5        -31.1059   26.9407   65.3255 O.2       1 <0>        -0.5000 
     28 H1        -35.5397   28.3937   59.4545 H         1 <0>         0.0600 
     29 H2        -34.6096   29.8232   59.8269 H         1 <0>         0.0600 
     30 H3        -35.5155   29.0171   61.1036 H         1 <0>         0.0600 
     31 H4        -27.6173   26.6163   65.4512 H         1 <0>         0.0600 
     32 H5        -28.8988   26.6236   66.6531 H         1 <0>         0.0600 
     33 H6        -27.4110   25.7569   66.9763 H         1 <0>         0.0600 
     34 H7        -27.1345   24.2996   64.2238 H         1 <0>         0.0600 
     35 H8        -26.9640   23.5432   65.8067 H         1 <0>         0.0600 
     36 H9        -28.1132   22.8962   64.6514 H         1 <0>         0.0600 
     37 H10       -34.4307   23.2576   64.6862 H         1 <0>         0.0600 
     38 H11       -33.9001   22.1703   65.9663 H         1 <0>         0.0600 
     39 H12       -35.3173   24.4138   66.5720 H         1 <0>         0.0600 
     40 H13       -33.9767   23.8965   67.5913 H         1 <0>         0.0600 
     41 H14       -32.1782   23.3374   64.1933 H         1 <0>         0.0600 
     42 H15       -31.6542   23.0237   65.8530 H         1 <0>         0.0600 
     43 H16       -34.0432   27.0234   60.9468 H         1 <0>         0.0600 
     44 H17       -33.1883   27.7167   59.5870 H         1 <0>         0.0600 
     45 H18       -32.3411   29.5580   61.0531 H         1 <0>         0.0600 
     46 H19       -33.2646   28.9289   62.3862 H         1 <0>         0.0600 
     47 H20       -31.0467   28.2232   62.7504 H         1 <0>         0.0600 
     48 H21       -31.9342   26.8080   62.2697 H         1 <0>         0.0600 
     49 H22       -30.9288   26.8904   60.0082 H         1 <0>         0.0600 
     50 H23       -30.2520   28.4676   60.3134 H         1 <0>         0.0600 
     51 H24       -32.6031   25.8228   68.2095 H         1 <0>         0.0600 
     52 H25       -32.6092   27.2749   67.2119 H         1 <0>         0.0600 
     53 H26       -27.4344   25.7893   60.5470 H         1 <0>         0.0600 
     54 H27       -28.7792   25.8156   59.4442 H         1 <0>         0.0600 
     55 H28       -33.9785   26.0626   65.4696 H         1 <0>         0.0600 
     56 H29       -29.2429   24.2233   66.4382 H         1 <0>         0.0600 
     57 H30       -28.6507   27.6215   61.9015 H         1 <0>         0.0600 
     58 H31       -30.1643   24.0632   64.1165 H         1 <0>         0.0600 
     59 H32       -29.1245   26.8319   63.8208 H         1 <0>         0.3000 
     60 H33       -27.7329   26.6671   57.4945 H         1 <0>         0.3000 
     61 H34       -34.8832   27.2706   67.3855 H         1 <0>         0.4180 
     62 H35       -26.1234   28.7590   58.1675 H         1 <0>         0.3619 
@<TRIPOS>BOND
     1    1    7 1    
     2    1   28 1    
     3    1   29 1    
     4    1   30 1    
     5    2   14 1    
     6    2   31 1    
     7    2   32 1    
     8    2   33 1    
     9    3   14 1    
    10    3   34 1    
    11    3   35 1    
    12    3   36 1    
    13    4    5 1    
    14    4    6 1    
    15    4   37 1    
    16    4   38 1    
    17    5   13 1    
    18    5   39 1    
    19    5   40 1    
    20    6   22 1    
    21    6   41 1    
    22    6   42 1    
    23    7    8 1    
    24    7   43 1    
    25    7   44 1    
    26    8    9 1    
    27    8   45 1    
    28    8   46 1    
    29    9   10 1    
    30    9   47 1    
    31    9   48 1    
    32   10   15 1    
    33   10   49 1    
    34   10   50 1    
    35   11   13 1    
    36   11   23 1    
    37   11   51 1    
    38   11   52 1    
    39   12   15 1    
    40   12   17 1    
    41   12   53 1    
    42   12   54 1    
    43   13   22 1    
    44   13   55 1    
    45   14   16 1    
    46   14   56 1    
    47   15   18 1    
    48   15   57 1    
    49   16   19 1    
    50   16   20 1    
    51   16   58 1    
    52   17   21 am   BACKBONE|DICT|INTERRES
    53   17   25 2    
    54   18   20 am   BACKBONE|DICT|INTERRES
    55   18   26 2    
    56   19   22 am   BACKBONE|DICT|INTERRES
    57   19   27 2    
    58   20   59 1    
    59   21   24 1    
    60   21   60 1    
    61   23   61 1    
    62   24   62 1    
@<TRIPOS>SUBSTRUCTURE
     1 <0>         1 GROUP             0       ****    0 ROOT    
@<TRIPOS>MOLECULE
BB2_501_1LRU
62   62    1
SMALL
USER_CHARGES


@<TRIPOS>ATOM
      1 C1        -35.0499   29.0239   60.4594 C.3       1 <0>        -0.1800 
      2 C2        -28.1529   25.9995   66.1630 C.3       1 <0>        -0.1800 
      3 C3        -27.7716   23.8308   64.9416 C.3       1 <0>        -0.1800 
      4 C4        -33.9311   23.2480   65.4753 C.3       1 <0>        -0.1200 
      5 C5        -34.3626   24.2448   66.5306 C.3       1 <0>        -0.1200 
      6 C6        -32.4714   23.5929   65.2183 C.3       1 <0>        -0.0500 
      7 C7        -33.8952   28.5466   61.3418 C.3       1 <0>        -0.1200 
      8 C8        -32.7317   28.0019   60.5001 C.3       1 <0>        -0.1200 
      9 C9        -31.5698   27.4701   61.3409 C.3       1 <0>        -0.1200 
     10 C10       -30.3575   27.0889   60.4666 C.3       1 <0>        -0.1200 
     11 C11       -33.1897   26.2331   67.5946 C.3       1 <0>         0.1450 
     12 C12       -27.8860   26.4087   60.3371 C.3       1 <0>        -0.1200 
     13 C13       -33.4985   25.4919   66.2762 C.3       1 <0>         0.0100 
     14 C14       -28.8305   24.7590   65.5664 C.3       1 <0>        -0.0600 
     15 C15       -29.0682   26.7593   61.2608 C.3       1 <0>        -0.0600 
     16 C16       -29.9849   25.0866   64.5814 C.3       1 <0>         0.1400 
     17 C17       -27.4103   27.5941   59.5050 C.2       1 <0>         0.5000 
     18 C18       -29.3133   25.6125   62.2427 C.2       1 <0>         0.5000 
     19 C19       -31.2230   25.7488   65.2352 C.2       1 <0>         0.5000 
     20 N1        -29.5239   25.9686   63.5146 N.am      1 <0>        -0.5000 
     21 N2        -27.4128   27.4233   58.1817 N.am      1 <0>        -0.2244 
     22 N3        -32.2958   24.9962   65.5813 N.am      1 <0>        -0.1400 
     23 O1        -34.3780   26.6227   68.2527 O.3       1 <0>        -0.6830 
     24 O2        -26.6094   28.3104   57.4528 O.3       1 <0>        -0.4375 
     25 O3        -27.0087   28.6228   60.0457 O.2       1 <0>        -0.5000 
     26 O4        -29.3402   24.4470   61.8468 O.2       1 <0>        -0.5000 
     27 O5        -31.1944   26.9657   65.4211 O.2       1 <0>        -0.5000 
     28 H1        -35.8875   29.3890   61.0526 H         1 <0>         0.0600 
     29 H2        -35.4085   28.2122   59.8340 H         1 <0>         0.0600 
     30 H3        -34.7285   29.8233   59.7925 H         1 <0>         0.0600 
     31 H4        -27.6541   26.6026   65.4061 H         1 <0>         0.0600 
     32 H5        -28.8880   26.6234   66.6533 H         1 <0>         0.0600 
     33 H6        -27.4127   25.7237   66.9132 H         1 <0>         0.0600 
     34 H7        -27.2266   24.3262   64.1379 H         1 <0>         0.0600 
     35 H8        -27.0426   23.5108   65.6857 H         1 <0>         0.0600 
     36 H9        -28.2236   22.9295   64.5262 H         1 <0>         0.0600 
     37 H10       -34.5084   23.4075   64.5615 H         1 <0>         0.0600 
     38 H11       -34.0739   22.2119   65.7811 H         1 <0>         0.0600 
     39 H12       -35.4318   24.4571   66.4892 H         1 <0>         0.0600 
     40 H13       -34.1465   23.8255   67.5132 H         1 <0>         0.0600 
     41 H14       -32.2363   23.3788   64.1754 H         1 <0>         0.0600 
     42 H15       -31.7985   23.0236   65.8524 H         1 <0>         0.0600 
     43 H16       -33.5502   29.3720   61.9631 H         1 <0>         0.0600 
     44 H17       -34.2545   27.7739   62.0230 H         1 <0>         0.0600 
     45 H18       -33.0926   27.2090   59.8448 H         1 <0>         0.0600 
     46 H19       -32.3604   28.7956   59.8526 H         1 <0>         0.0600 
     47 H20       -31.2632   28.2238   62.0657 H         1 <0>         0.0600 
     48 H21       -31.9139   26.6122   61.9185 H         1 <0>         0.0600 
     49 H22       -30.6209   26.2528   59.8162 H         1 <0>         0.0600 
     50 H23       -30.1502   27.9301   59.8048 H         1 <0>         0.0600 
     51 H24       -32.6098   25.5863   68.2533 H         1 <0>         0.0600 
     52 H25       -32.6094   27.1372   67.4302 H         1 <0>         0.0600 
     53 H26       -27.0341   26.0659   60.9287 H         1 <0>         0.0600 
     54 H27       -28.1570   25.5769   59.6827 H         1 <0>         0.0600 
     55 H28       -34.0246   26.1585   65.5911 H         1 <0>         0.0600 
     56 H29       -29.2758   24.2221   66.4023 H         1 <0>         0.0600 
     57 H30       -28.7939   27.6421   61.8432 H         1 <0>         0.0600 
     58 H31       -30.2721   24.1414   64.1295 H         1 <0>         0.0600 
     59 H32       -29.5041   26.9526   63.7460 H         1 <0>         0.3000 
     60 H33       -27.6841   26.6092   57.6372 H         1 <0>         0.3000 
     61 H34       -34.9302   25.8596   68.3419 H         1 <0>         0.4180 
     62 H35       -26.2970   28.9027   58.1275 H         1 <0>         0.3619 
@<TRIPOS>BOND
     1    1    7 1    
     2    1   28 1    
     3    1   29 1    
     4    1   30 1    
     5    2   14 1    
     6    2   31 1    
     7    2   32 1    
     8    2   33 1    
     9    3   14 1    
    10    3   34 1    
    11    3   35 1    
    12    3   36 1    
    13    4    5 1    
    14    4    6 1    
    15    4   37 1    
    16    4   38 1    
    17    5   13 1    
    18    5   39 1    
    19    5   40 1    
    20    6   22 1    
    21    6   41 1    
    22    6   42 1    
    23    7    8 1    
    24    7   43 1    
    25    7   44 1    
    26    8    9 1    
    27    8   45 1    
    28    8   46 1    
    29    9   10 1    
    30    9   47 1    
    31    9   48 1    
    32   10   15 1    
    33   10   49 1    
    34   10   50 1    
    35   11   13 1    
    36   11   23 1    
    37   11   51 1    
    38   11   52 1    
    39   12   15 1    
    40   12   17 1    
    41   12   53 1    
    42   12   54 1    
    43   13   22 1    
    44   13   55 1    
    45   14   16 1    
    46   14   56 1    
    47   15   18 1    
    48   15   57 1    
    49   16   19 1    
    50   16   20 1    
    51   16   58 1    
    52   17   21 am   BACKBONE|DICT|INTERRES
    53   17   25 2    
    54   18   20 am   BACKBONE|DICT|INTERRES
    55   18   26 2    
    56   19   22 am   BACKBONE|DICT|INTERRES
    57   19   27 2    
    58   20   59 1    
    59   21   24 1    
    60   21   60 1    
    61   23   61 1    
    62   24   62 1    
@<TRIPOS>SUBSTRUCTURE
     1 <0>         1 GROUP             0       ****    0 ROOT    
@<TRIPOS>MOLECULE
BB2_501_1LRU
62   62    1
SMALL
USER_CHARGES


@<TRIPOS>ATOM
      1 C1        -35.1069   28.8770   60.1815 C.3       1 <0>        -0.1800 
      2 C2        -27.9268   25.9821   65.9276 C.3       1 <0>        -0.1800 
      3 C3        -27.5010   23.8217   64.6777 C.3       1 <0>        -0.1800 
      4 C4        -33.6937   22.8855   64.9275 C.3       1 <0>        -0.1200 
      5 C5        -34.1636   23.6655   66.1512 C.3       1 <0>        -0.1200 
      6 C6        -32.2350   23.3122   64.7460 C.3       1 <0>        -0.0500 
      7 C7        -33.8764   28.0224   60.5042 C.3       1 <0>        -0.1200 
      8 C8        -32.9377   28.6984   61.5137 C.3       1 <0>        -0.1200 
      9 C9        -31.7542   27.8032   61.9071 C.3       1 <0>        -0.1200 
     10 C10       -30.7673   27.5863   60.7442 C.3       1 <0>        -0.1200 
     11 C11       -33.0334   25.4762   67.5076 C.3       1 <0>         0.1450 
     12 C12       -28.6214   26.4970   59.9073 C.3       1 <0>        -0.1200 
     13 C13       -33.3506   24.9616   66.1064 C.3       1 <0>         0.0100 
     14 C14       -28.5638   24.6960   65.3651 C.3       1 <0>        -0.0600 
     15 C15       -29.4363   26.9161   61.1565 C.3       1 <0>        -0.0600 
     16 C16       -29.8018   24.9604   64.4594 C.3       1 <0>         0.1400 
     17 C17       -27.7440   27.6218   59.3423 C.2       1 <0>         0.5000 
     18 C18       -29.6821   25.7013   62.0672 C.2       1 <0>         0.5000 
     19 C19       -31.0430   25.4593   65.2297 C.2       1 <0>         0.5000 
     20 N1        -29.4773   25.8920   63.3778 N.am      1 <0>        -0.5000 
     21 N2        -27.8096   27.8269   58.0195 N.am      1 <0>        -0.2244 
     22 N3        -32.1409   24.6330   65.3577 N.am      1 <0>        -0.1400 
     23 O1        -34.1754   26.0093   68.1486 O.3       1 <0>        -0.6830 
     24 O2        -26.6764   28.4499   57.4551 O.3       1 <0>        -0.4375 
     25 O3        -26.9884   28.2507   60.0846 O.2       1 <0>        -0.5000 
     26 O4        -30.0300   24.6240   61.5844 O.2       1 <0>        -0.5000 
     27 O5        -31.0166   26.5864   65.7297 O.2       1 <0>        -0.5000 
     28 H1        -35.7532   28.3718   59.4634 H         1 <0>         0.0600 
     29 H2        -34.8186   29.8365   59.7514 H         1 <0>         0.0600 
     30 H3        -35.6960   29.0740   61.0776 H         1 <0>         0.0600 
     31 H4        -27.5148   26.6080   65.1358 H         1 <0>         0.0600 
     32 H5        -28.6508   26.5797   66.4817 H         1 <0>         0.0600 
     33 H6        -27.1124   25.7454   66.6127 H         1 <0>         0.0600 
     34 H7        -27.0353   24.3373   63.8386 H         1 <0>         0.0600 
     35 H8        -26.7073   23.5506   65.3741 H         1 <0>         0.0600 
     36 H9        -27.9355   22.8959   64.2999 H         1 <0>         0.0600 
     37 H10       -34.2748   23.1878   64.0563 H         1 <0>         0.0600 
     38 H11       -33.8075   21.8075   65.0426 H         1 <0>         0.0600 
     39 H12       -35.2393   23.8413   66.1545 H         1 <0>         0.0600 
     40 H13       -33.9168   23.1097   67.0558 H         1 <0>         0.0600 
     41 H14       -31.9486   23.3261   63.6944 H         1 <0>         0.0600 
     42 H15       -31.5651   22.6295   65.2687 H         1 <0>         0.0600 
     43 H16       -34.2019   27.0578   60.8957 H         1 <0>         0.0600 
     44 H17       -33.3330   27.8133   59.5819 H         1 <0>         0.0600 
     45 H18       -32.5614   29.6309   61.0907 H         1 <0>         0.0600 
     46 H19       -33.5012   28.9698   62.4074 H         1 <0>         0.0600 
     47 H20       -31.2271   28.2504   62.7508 H         1 <0>         0.0600 
     48 H21       -32.1378   26.8441   62.2569 H         1 <0>         0.0600 
     49 H22       -31.2506   27.0007   59.9604 H         1 <0>         0.0600 
     50 H23       -30.5473   28.5560   60.2962 H         1 <0>         0.0600 
     51 H24       -32.6071   24.6929   68.1343 H         1 <0>         0.0600 
     52 H25       -32.2812   26.2631   67.4462 H         1 <0>         0.0600 
     53 H26       -28.0116   25.6192   60.1292 H         1 <0>         0.0600 
     54 H27       -29.3022   26.1956   59.1108 H         1 <0>         0.0600 
     55 H28       -33.8952   25.7428   65.5761 H         1 <0>         0.0600 
     56 H29       -28.9092   24.1231   66.2265 H         1 <0>         0.0600 
     57 H30       -28.8600   27.6589   61.7118 H         1 <0>         0.0600 
     58 H31       -30.0813   24.0170   63.9904 H         1 <0>         0.0600 
     59 H32       -29.0576   26.7645   63.6659 H         1 <0>         0.3000 
     60 H33       -28.2787   27.2442   57.3406 H         1 <0>         0.3000 
     61 H34       -34.8442   25.3419   68.1763 H         1 <0>         0.4180 
     62 H35       -26.9793   28.6967   56.5924 H         1 <0>         0.3619 
@<TRIPOS>BOND
     1    1    7 1    
     2    1   28 1    
     3    1   29 1    
     4    1   30 1    
     5    2   14 1    
     6    2   31 1    
     7    2   32 1    
     8    2   33 1    
     9    3   14 1    
    10    3   34 1    
    11    3   35 1    
    12    3   36 1    
    13    4    5 1    
    14    4    6 1    
    15    4   37 1    
    16    4   38 1    
    17    5   13 1    
    18    5   39 1    
    19    5   40 1    
    20    6   22 1    
    21    6   41 1    
    22    6   42 1    
    23    7    8 1    
    24    7   43 1    
    25    7   44 1    
    26    8    9 1    
    27    8   45 1    
    28    8   46 1    
    29    9   10 1    
    30    9   47 1    
    31    9   48 1    
    32   10   15 1    
    33   10   49 1    
    34   10   50 1    
    35   11   13 1    
    36   11   23 1    
    37   11   51 1    
    38   11   52 1    
    39   12   15 1    
    40   12   17 1    
    41   12   53 1    
    42   12   54 1    
    43   13   22 1    
    44   13   55 1    
    45   14   16 1    
    46   14   56 1    
    47   15   18 1    
    48   15   57 1    
    49   16   19 1    
    50   16   20 1    
    51   16   58 1    
    52   17   21 am   BACKBONE|DICT|INTERRES
    53   17   25 2    
    54   18   20 am   BACKBONE|DICT|INTERRES
    55   18   26 2    
    56   19   22 am   BACKBONE|DICT|INTERRES
    57   19   27 2    
    58   20   59 1    
    59   21   24 1    
    60   21   60 1    
    61   23   61 1    
    62   24   62 1    
@<TRIPOS>SUBSTRUCTURE
     1 <0>         1 GROUP             0       ****    0 ROOT    
@<TRIPOS>MOLECULE
BB2_501_1LRU
62   62    1
SMALL
USER_CHARGES


@<TRIPOS>ATOM
      1 C1        -34.9772   28.8905   60.1922 C.3       1 <0>        -0.1800 
      2 C2        -28.1354   26.0067   66.1852 C.3       1 <0>        -0.1800 
      3 C3        -27.7100   23.8211   65.0058 C.3       1 <0>        -0.1800 
      4 C4        -33.8031   23.1771   65.6206 C.3       1 <0>        -0.1200 
      5 C5        -34.2307   24.2260   66.6280 C.3       1 <0>        -0.1200 
      6 C6        -32.3719   23.5640   65.2623 C.3       1 <0>        -0.0500 
      7 C7        -33.8191   27.9540   60.5496 C.3       1 <0>        -0.1200 
      8 C8        -32.8315   28.6264   61.5078 C.3       1 <0>        -0.1200 
      9 C9        -31.6506   27.7474   61.9261 C.3       1 <0>        -0.1200 
     10 C10       -30.6071   27.5181   60.8061 C.3       1 <0>        -0.1200 
     11 C11       -33.1711   26.3706   67.4941 C.3       1 <0>         0.1450 
     12 C12       -28.3177   26.5549   60.1269 C.3       1 <0>        -0.1200 
     13 C13       -33.4303   25.4824   66.2561 C.3       1 <0>         0.0100 
     14 C14       -28.7871   24.7516   65.5875 C.3       1 <0>        -0.0600 
     15 C15       -29.2570   26.9261   61.2946 C.3       1 <0>        -0.0600 
     16 C16       -29.9093   25.0362   64.5520 C.3       1 <0>         0.1400 
     17 C17       -27.6799   27.7619   59.4369 C.2       1 <0>         0.5000 
     18 C18       -29.4854   25.7059   62.1921 C.2       1 <0>         0.5000 
     19 C19       -31.1469   25.7248   65.1982 C.2       1 <0>         0.5000 
     20 N1        -29.3975   25.9236   63.5110 N.am      1 <0>        -0.5000 
     21 N2        -27.8092   27.8234   58.1080 N.am      1 <0>        -0.2244 
     22 N3        -32.2138   24.9825   65.5811 N.am      1 <0>        -0.1400 
     23 O1        -34.3835   26.8234   68.0653 O.3       1 <0>        -0.6830 
     24 O2        -26.7985   28.5508   57.4536 O.3       1 <0>        -0.4375 
     25 O3        -27.0096   28.5713   60.0778 O.2       1 <0>        -0.5000 
     26 O4        -29.7888   24.6193   61.7014 O.2       1 <0>        -0.5000 
     27 O5        -31.1218   26.9484   65.3406 O.2       1 <0>        -0.5000 
     28 H1        -35.6335   28.4403   59.4540 H         1 <0>         0.0600 
     29 H2        -34.6107   29.8224   59.7672 H         1 <0>         0.0600 
     30 H3        -35.5745   29.1315   61.0707 H         1 <0>         0.0600 
     31 H4        -27.6301   26.6185   65.4384 H         1 <0>         0.0600 
     32 H5        -28.8934   26.6234   66.6528 H         1 <0>         0.0600 
     33 H6        -27.4097   25.7431   66.9536 H         1 <0>         0.0600 
     34 H7        -27.1753   24.2859   64.1762 H         1 <0>         0.0600 
     35 H8        -26.9747   23.5467   65.7640 H         1 <0>         0.0600 
     36 H9        -28.1510   22.8942   64.6419 H         1 <0>         0.0600 
     37 H10       -34.4348   23.2398   64.7331 H         1 <0>         0.0600 
     38 H11       -33.8827   22.1612   66.0061 H         1 <0>         0.0600 
     39 H12       -35.3088   24.3950   66.6249 H         1 <0>         0.0600 
     40 H13       -33.9538   23.8890   67.6278 H         1 <0>         0.0600 
     41 H14       -32.1961   23.3469   64.2094 H         1 <0>         0.0600 
     42 H15       -31.6374   23.0238   65.8531 H         1 <0>         0.0600 
     43 H16       -34.2100   27.0408   61.0040 H         1 <0>         0.0600 
     44 H17       -33.3061   27.6514   59.6355 H         1 <0>         0.0600 
     45 H18       -32.4474   29.5366   61.0543 H         1 <0>         0.0600 
     46 H19       -33.3698   28.9362   62.4052 H         1 <0>         0.0600 
     47 H20       -31.1546   28.2229   62.7730 H         1 <0>         0.0600 
     48 H21       -32.0327   26.7977   62.2983 H         1 <0>         0.0600 
     49 H22       -31.0365   26.8721   60.0415 H         1 <0>         0.0600 
     50 H23       -30.4050   28.4710   60.3164 H         1 <0>         0.0600 
     51 H24       -32.6088   25.8189   68.2514 H         1 <0>         0.0600 
     52 H25       -32.6092   27.2664   67.2455 H         1 <0>         0.0600 
     53 H26       -27.4999   25.9290   60.4849 H         1 <0>         0.0600 
     54 H27       -28.8585   25.9470   59.4003 H         1 <0>         0.0600 
     55 H28       -33.9880   26.0504   65.5116 H         1 <0>         0.0600 
     56 H29       -29.2463   24.2236   66.4211 H         1 <0>         0.0600 
     57 H30       -28.7653   27.6833   61.9059 H         1 <0>         0.0600 
     58 H31       -30.1911   24.0854   64.1011 H         1 <0>         0.0600 
     59 H32       -29.1663   26.8593   63.8142 H         1 <0>         0.3000 
     60 H33       -28.1719   27.0880   57.5094 H         1 <0>         0.3000 
     61 H34       -34.8785   27.2649   67.3915 H         1 <0>         0.4180 
     62 H35       -26.2643   28.8561   58.1740 H         1 <0>         0.3619 
@<TRIPOS>BOND
     1    1    7 1    
     2    1   28 1    
     3    1   29 1    
     4    1   30 1    
     5    2   14 1    
     6    2   31 1    
     7    2   32 1    
     8    2   33 1    
     9    3   14 1    
    10    3   34 1    
    11    3   35 1    
    12    3   36 1    
    13    4    5 1    
    14    4    6 1    
    15    4   37 1    
    16    4   38 1    
    17    5   13 1    
    18    5   39 1    
    19    5   40 1    
    20    6   22 1    
    21    6   41 1    
    22    6   42 1    
    23    7    8 1    
    24    7   43 1    
    25    7   44 1    
    26    8    9 1    
    27    8   45 1    
    28    8   46 1    
    29    9   10 1    
    30    9   47 1    
    31    9   48 1    
    32   10   15 1    
    33   10   49 1    
    34   10   50 1    
    35   11   13 1    
    36   11   23 1    
    37   11   51 1    
    38   11   52 1    
    39   12   15 1    
    40   12   17 1    
    41   12   53 1    
    42   12   54 1    
    43   13   22 1    
    44   13   55 1    
    45   14   16 1    
    46   14   56 1    
    47   15   18 1    
    48   15   57 1    
    49   16   19 1    
    50   16   20 1    
    51   16   58 1    
    52   17   21 am   BACKBONE|DICT|INTERRES
    53   17   25 2    
    54   18   20 am   BACKBONE|DICT|INTERRES
    55   18   26 2    
    56   19   22 am   BACKBONE|DICT|INTERRES
    57   19   27 2    
    58   20   59 1    
    59   21   24 1    
    60   21   60 1    
    61   23   61 1    
    62   24   62 1    
@<TRIPOS>SUBSTRUCTURE
     1 <0>         1 GROUP             0       ****    0 ROOT    
@<TRIPOS>MOLECULE
BB2_501_1LRU
62   62    1
SMALL
USER_CHARGES


@<TRIPOS>ATOM
      1 C1        -35.1135   28.8459   60.1997 C.3       1 <0>        -0.1800 
      2 C2        -27.8701   26.0007   65.9526 C.3       1 <0>        -0.1800 
      3 C3        -27.4723   23.8028   64.7603 C.3       1 <0>        -0.1800 
      4 C4        -33.6373   22.8759   65.0257 C.3       1 <0>        -0.1200 
      5 C5        -34.1115   23.6783   66.2331 C.3       1 <0>        -0.1200 
      6 C6        -32.1812   23.3075   64.8348 C.3       1 <0>        -0.0500 
      7 C7        -33.8692   28.0122   60.5249 C.3       1 <0>        -0.1200 
      8 C8        -32.9698   28.6805   61.5745 C.3       1 <0>        -0.1200 
      9 C9        -31.7716   27.8042   61.9657 C.3       1 <0>        -0.1200 
     10 C10       -30.7750   27.6169   60.8060 C.3       1 <0>        -0.1200 
     11 C11       -32.9919   25.5235   67.5513 C.3       1 <0>         0.1450 
     12 C12       -28.6456   26.5043   59.9575 C.3       1 <0>        -0.1200 
     13 C13       -33.3063   24.9781   66.1612 C.3       1 <0>         0.0100 
     14 C14       -28.5236   24.7084   65.4244 C.3       1 <0>        -0.0600 
     15 C15       -29.4496   26.9311   61.2111 C.3       1 <0>        -0.0600 
     16 C16       -29.7585   24.9643   64.5121 C.3       1 <0>         0.1400 
     17 C17       -27.7523   27.6174   59.3942 C.2       1 <0>         0.5000 
     18 C18       -29.7049   25.7180   62.1215 C.2       1 <0>         0.5000 
     19 C19       -31.0020   25.4712   65.2734 C.2       1 <0>         0.5000 
     20 N1        -29.4301   25.8851   63.4225 N.am      1 <0>        -0.5000 
     21 N2        -27.8088   27.8199   58.0706 N.am      1 <0>        -0.2244 
     22 N3        -32.0949   24.6412   65.4189 N.am      1 <0>        -0.1400 
     23 O1        -34.1399   26.0490   68.1876 O.3       1 <0>        -0.6830 
     24 O2        -26.6688   28.4356   57.5117 O.3       1 <0>        -0.4375 
     25 O3        -26.9933   28.2395   60.1388 O.2       1 <0>        -0.5000 
     26 O4        -30.1219   24.6621   61.6462 O.2       1 <0>        -0.5000 
     27 O5        -30.9818   26.6083   65.7507 O.2       1 <0>        -0.5000 
     28 H1        -35.7312   28.3467   59.4529 H         1 <0>         0.0600 
     29 H2        -34.8398   29.8245   59.8044 H         1 <0>         0.0600 
     30 H3        -35.7266   29.0019   61.0878 H         1 <0>         0.0600 
     31 H4        -27.4506   26.6002   65.1445 H         1 <0>         0.0600 
     32 H5        -28.5863   26.6220   66.4907 H         1 <0>         0.0600 
     33 H6        -27.0585   25.7720   66.6437 H         1 <0>         0.0600 
     34 H7        -27.0004   24.2900   63.9079 H         1 <0>         0.0600 
     35 H8        -26.6817   23.5402   65.4636 H         1 <0>         0.0600 
     36 H9        -27.9186   22.8728   64.4072 H         1 <0>         0.0600 
     37 H10       -34.2204   23.1566   64.1487 H         1 <0>         0.0600 
     38 H11       -33.7446   21.7999   65.1632 H         1 <0>         0.0600 
     39 H12       -35.1883   23.8477   66.2332 H         1 <0>         0.0600 
     40 H13       -33.8612   23.1429   67.1490 H         1 <0>         0.0600 
     41 H14       -31.8953   23.3013   63.7830 H         1 <0>         0.0600 
     42 H15       -31.5071   22.6398   65.3713 H         1 <0>         0.0600 
     43 H16       -34.1791   27.0288   60.8806 H         1 <0>         0.0600 
     44 H17       -33.3010   27.8438   59.6093 H         1 <0>         0.0600 
     45 H18       -32.6096   29.6350   61.1883 H         1 <0>         0.0600 
     46 H19       -33.5587   28.9094   62.4637 H         1 <0>         0.0600 
     47 H20       -31.2573   28.2535   62.8162 H         1 <0>         0.0600 
     48 H21       -32.1386   26.8348   62.3047 H         1 <0>         0.0600 
     49 H22       -31.2529   27.0550   60.0018 H         1 <0>         0.0600 
     50 H23       -30.5480   28.5981   60.3873 H         1 <0>         0.0600 
     51 H24       -32.5497   24.7591   68.1902 H         1 <0>         0.0600 
     52 H25       -32.2533   26.3216   67.4721 H         1 <0>         0.0600 
     53 H26       -28.0490   25.6161   60.1738 H         1 <0>         0.0600 
     54 H27       -29.3336   26.2170   59.1621 H         1 <0>         0.0600 
     55 H28       -33.8558   25.7448   65.6149 H         1 <0>         0.0600 
     56 H29       -28.8758   24.1629   66.3007 H         1 <0>         0.0600 
     57 H30       -28.8624   27.6666   61.7645 H         1 <0>         0.0600 
     58 H31       -30.0369   24.0165   64.0515 H         1 <0>         0.0600 
     59 H32       -28.9479   26.7295   63.6964 H         1 <0>         0.3000 
     60 H33       -28.2769   27.2383   57.3902 H         1 <0>         0.3000 
     61 H34       -34.7939   25.3685   68.2389 H         1 <0>         0.4180 
     62 H35       -26.9606   28.6686   56.6413 H         1 <0>         0.3619 
@<TRIPOS>BOND
     1    1    7 1    
     2    1   28 1    
     3    1   29 1    
     4    1   30 1    
     5    2   14 1    
     6    2   31 1    
     7    2   32 1    
     8    2   33 1    
     9    3   14 1    
    10    3   34 1    
    11    3   35 1    
    12    3   36 1    
    13    4    5 1    
    14    4    6 1    
    15    4   37 1    
    16    4   38 1    
    17    5   13 1    
    18    5   39 1    
    19    5   40 1    
    20    6   22 1    
    21    6   41 1    
    22    6   42 1    
    23    7    8 1    
    24    7   43 1    
    25    7   44 1    
    26    8    9 1    
    27    8   45 1    
    28    8   46 1    
    29    9   10 1    
    30    9   47 1    
    31    9   48 1    
    32   10   15 1    
    33   10   49 1    
    34   10   50 1    
    35   11   13 1    
    36   11   23 1    
    37   11   51 1    
    38   11   52 1    
    39   12   15 1    
    40   12   17 1    
    41   12   53 1    
    42   12   54 1    
    43   13   22 1    
    44   13   55 1    
    45   14   16 1    
    46   14   56 1    
    47   15   18 1    
    48   15   57 1    
    49   16   19 1    
    50   16   20 1    
    51   16   58 1    
    52   17   21 am   BACKBONE|DICT|INTERRES
    53   17   25 2    
    54   18   20 am   BACKBONE|DICT|INTERRES
    55   18   26 2    
    56   19   22 am   BACKBONE|DICT|INTERRES
    57   19   27 2    
    58   20   59 1    
    59   21   24 1    
    60   21   60 1    
    61   23   61 1    
    62   24   62 1    
@<TRIPOS>SUBSTRUCTURE
     1 <0>         1 GROUP             0       ****    0 ROOT    
@<TRIPOS>MOLECULE
BB2_501_1LRU
62   62    1
SMALL
USER_CHARGES


@<TRIPOS>ATOM
      1 C1        -35.1953   28.8899   60.2334 C.3       1 <0>        -0.1800 
      2 C2        -28.0022   26.0466   65.9753 C.3       1 <0>        -0.1800 
      3 C3        -27.5109   23.9267   64.6809 C.3       1 <0>        -0.1800 
      4 C4        -33.6911   22.8943   65.0534 C.3       1 <0>        -0.1200 
      5 C5        -34.1449   23.6966   66.2687 C.3       1 <0>        -0.1200 
      6 C6        -32.2451   23.3415   64.8253 C.3       1 <0>        -0.0500 
      7 C7        -33.9078   28.0906   60.4622 C.3       1 <0>        -0.1200 
      8 C8        -33.0213   28.7018   61.5567 C.3       1 <0>        -0.1200 
      9 C9        -31.8333   27.8009   61.9224 C.3       1 <0>        -0.1200 
     10 C10       -30.8360   27.6398   60.7594 C.3       1 <0>        -0.1200 
     11 C11       -33.0147   25.5602   67.5515 C.3       1 <0>         0.1450 
     12 C12       -28.7128   26.5297   59.8925 C.3       1 <0>        -0.1200 
     13 C13       -33.3567   25.0051   66.1718 C.3       1 <0>         0.0100 
     14 C14       -28.6017   24.7586   65.3771 C.3       1 <0>        -0.0600 
     15 C15       -29.5052   26.9580   61.1529 C.3       1 <0>        -0.0600 
     16 C16       -29.8369   25.0132   64.4649 C.3       1 <0>         0.1400 
     17 C17       -27.7884   27.6265   59.3477 C.2       1 <0>         0.5000 
     18 C18       -29.7486   25.7467   62.0690 C.2       1 <0>         0.5000 
     19 C19       -31.0804   25.5204   65.2261 C.2       1 <0>         0.5000 
     20 N1        -29.5091   25.9332   63.3743 N.am      1 <0>        -0.5000 
     21 N2        -27.8090   27.8250   58.0225 N.am      1 <0>        -0.2244 
     22 N3        -32.1598   24.6787   65.4016 N.am      1 <0>        -0.1400 
     23 O1        -34.1577   26.0483   68.2256 O.3       1 <0>        -0.6830 
     24 O2        -26.6535   28.4373   57.4925 O.3       1 <0>        -0.4375 
     25 O3        -27.0381   28.2392   60.1088 O.2       1 <0>        -0.5000 
     26 O4        -30.1254   24.6755   61.5944 O.2       1 <0>        -0.5000 
     27 O5        -31.0720   26.6686   65.6763 O.2       1 <0>        -0.5000 
     28 H1        -35.8027   28.4326   59.4521 H         1 <0>         0.0600 
     29 H2        -34.9749   29.9128   59.9270 H         1 <0>         0.0600 
     30 H3        -35.7986   28.9336   61.1406 H         1 <0>         0.0600 
     31 H4        -27.5981   26.7005   65.2022 H         1 <0>         0.0600 
     32 H5        -28.7462   26.6134   66.5353 H         1 <0>         0.0600 
     33 H6        -27.1889   25.8142   66.6631 H         1 <0>         0.0600 
     34 H7        -27.0500   24.4727   63.8587 H         1 <0>         0.0600 
     35 H8        -26.7175   23.6591   65.3791 H         1 <0>         0.0600 
     36 H9        -27.9186   22.9993   64.2777 H         1 <0>         0.0600 
     37 H10       -34.2986   23.1645   64.1897 H         1 <0>         0.0600 
     38 H11       -33.7827   21.8178   65.1979 H         1 <0>         0.0600 
     39 H12       -35.2232   23.8538   66.2944 H         1 <0>         0.0600 
     40 H13       -33.8663   23.1681   67.1804 H         1 <0>         0.0600 
     41 H14       -31.9848   23.3339   63.7669 H         1 <0>         0.0600 
     42 H15       -31.5505   22.6839   65.3479 H         1 <0>         0.0600 
     43 H16       -34.1649   27.0649   60.7293 H         1 <0>         0.0600 
     44 H17       -33.3492   28.0349   59.5271 H         1 <0>         0.0600 
     45 H18       -32.6508   29.6721   61.2232 H         1 <0>         0.0600 
     46 H19       -33.6226   28.8902   62.4471 H         1 <0>         0.0600 
     47 H20       -31.3164   28.2176   62.7878 H         1 <0>         0.0600 
     48 H21       -32.2114   26.8252   62.2298 H         1 <0>         0.0600 
     49 H22       -31.3100   27.0872   59.9466 H         1 <0>         0.0600 
     50 H23       -30.6169   28.6293   60.3564 H         1 <0>         0.0600 
     51 H24       -32.5275   24.8104   68.1748 H         1 <0>         0.0600 
     52 H25       -32.3053   26.3818   67.4492 H         1 <0>         0.0600 
     53 H26       -28.1415   25.6216   60.0939 H         1 <0>         0.0600 
     54 H27       -29.4083   26.2751   59.0924 H         1 <0>         0.0600 
     55 H28       -33.9280   25.7631   65.6359 H         1 <0>         0.0600 
     56 H29       -28.9411   24.1577   66.2216 H         1 <0>         0.0600 
     57 H30       -28.9140   27.6961   61.6986 H         1 <0>         0.0600 
     58 H31       -30.1151   24.0649   64.0052 H         1 <0>         0.0600 
     59 H32       -29.0574   26.7933   63.6512 H         1 <0>         0.3000 
     60 H33       -28.2596   27.2420   57.3315 H         1 <0>         0.3000 
     61 H34       -34.7954   25.3527   68.2797 H         1 <0>         0.4180 
     62 H35       -26.9199   28.6638   56.6124 H         1 <0>         0.3619 
@<TRIPOS>BOND
     1    1    7 1    
     2    1   28 1    
     3    1   29 1    
     4    1   30 1    
     5    2   14 1    
     6    2   31 1    
     7    2   32 1    
     8    2   33 1    
     9    3   14 1    
    10    3   34 1    
    11    3   35 1    
    12    3   36 1    
    13    4    5 1    
    14    4    6 1    
    15    4   37 1    
    16    4   38 1    
    17    5   13 1    
    18    5   39 1    
    19    5   40 1    
    20    6   22 1    
    21    6   41 1    
    22    6   42 1    
    23    7    8 1    
    24    7   43 1    
    25    7   44 1    
    26    8    9 1    
    27    8   45 1    
    28    8   46 1    
    29    9   10 1    
    30    9   47 1    
    31    9   48 1    
    32   10   15 1    
    33   10   49 1    
    34   10   50 1    
    35   11   13 1    
    36   11   23 1    
    37   11   51 1    
    38   11   52 1    
    39   12   15 1    
    40   12   17 1    
    41   12   53 1    
    42   12   54 1    
    43   13   22 1    
    44   13   55 1    
    45   14   16 1    
    46   14   56 1    
    47   15   18 1    
    48   15   57 1    
    49   16   19 1    
    50   16   20 1    
    51   16   58 1    
    52   17   21 am   BACKBONE|DICT|INTERRES
    53   17   25 2    
    54   18   20 am   BACKBONE|DICT|INTERRES
    55   18   26 2    
    56   19   22 am   BACKBONE|DICT|INTERRES
    57   19   27 2    
    58   20   59 1    
    59   21   24 1    
    60   21   60 1    
    61   23   61 1    
    62   24   62 1    
@<TRIPOS>SUBSTRUCTURE
     1 <0>         1 GROUP             0       ****    0 ROOT    
@<TRIPOS>MOLECULE
BB2_501_1LRU
62   62    1
SMALL
USER_CHARGES


@<TRIPOS>ATOM
      1 C1        -35.1500   28.8829   60.2858 C.3       1 <0>        -0.1800 
      2 C2        -28.2061   26.0094   66.1236 C.3       1 <0>        -0.1800 
      3 C3        -27.8052   23.8479   64.8931 C.3       1 <0>        -0.1800 
      4 C4        -33.8724   23.1809   65.6968 C.3       1 <0>        -0.1200 
      5 C5        -34.2631   24.2275   66.7232 C.3       1 <0>        -0.1200 
      6 C6        -32.4569   23.5741   65.2878 C.3       1 <0>        -0.0500 
      7 C7        -34.0557   28.2766   61.1681 C.3       1 <0>        -0.1200 
      8 C8        -32.8170   27.8921   60.3488 C.3       1 <0>        -0.1200 
      9 C9        -31.6411   27.4257   61.2113 C.3       1 <0>        -0.1200 
     10 C10       -30.4080   27.0467   60.3668 C.3       1 <0>        -0.1200 
     11 C11       -33.1924   26.3885   67.5273 C.3       1 <0>         0.1450 
     12 C12       -27.9191   26.4162   60.2905 C.3       1 <0>        -0.1200 
     13 C13       -33.4959   25.4904   66.3065 C.3       1 <0>         0.0100 
     14 C14       -28.8745   24.7678   65.5160 C.3       1 <0>        -0.0600 
     15 C15       -29.1264   26.7560   61.1875 C.3       1 <0>        -0.0600 
     16 C16       -30.0261   25.0876   64.5220 C.3       1 <0>         0.1400 
     17 C17       -27.4277   27.5992   59.4624 C.2       1 <0>         0.5000 
     18 C18       -29.3618   25.6105   62.1769 C.2       1 <0>         0.5000 
     19 C19       -31.2573   25.7557   65.1779 C.2       1 <0>         0.5000 
     20 N1        -29.5633   25.9647   63.4502 N.am      1 <0>        -0.5000 
     21 N2        -27.4096   27.4236   58.1391 N.am      1 <0>        -0.2244 
     22 N3        -32.2980   24.9960   65.6010 N.am      1 <0>        -0.1400 
     23 O1        -34.3842   26.8486   68.1334 O.3       1 <0>        -0.6830 
     24 O2        -26.4822   28.2233   57.4537 O.3       1 <0>        -0.4375 
     25 O3        -27.0091   28.6202   60.0068 O.2       1 <0>        -0.5000 
     26 O4        -29.3966   24.4446   61.7807 O.2       1 <0>        -0.5000 
     27 O5        -31.2534   26.9827   65.2890 O.2       1 <0>        -0.5000 
     28 H1        -36.0535   29.0811   60.8625 H         1 <0>         0.0600 
     29 H2        -35.4076   28.2238   59.4589 H         1 <0>         0.0600 
     30 H3        -34.8175   29.8230   59.8527 H         1 <0>         0.0600 
     31 H4        -27.7370   26.6259   65.3568 H         1 <0>         0.0600 
     32 H5        -28.9330   26.6234   66.6520 H         1 <0>         0.0600 
     33 H6        -27.4338   25.7339   66.8399 H         1 <0>         0.0600 
     34 H7        -27.2706   24.3449   64.0834 H         1 <0>         0.0600 
     35 H8        -27.0689   23.5417   65.6365 H         1 <0>         0.0600 
     36 H9        -28.2508   22.9394   64.4873 H         1 <0>         0.0600 
     37 H10       -34.5398   23.2490   64.8367 H         1 <0>         0.0600 
     38 H11       -33.9368   22.1639   66.0836 H         1 <0>         0.0600 
     39 H12       -35.3407   24.3875   66.7719 H         1 <0>         0.0600 
     40 H13       -33.9365   23.8940   67.7119 H         1 <0>         0.0600 
     41 H14       -32.3208   23.3600   64.2260 H         1 <0>         0.0600 
     42 H15       -31.7091   23.0244   65.8528 H         1 <0>         0.0600 
     43 H16       -33.7828   28.9911   61.9478 H         1 <0>         0.0600 
     44 H17       -34.4404   27.3955   61.6833 H         1 <0>         0.0600 
     45 H18       -33.0827   27.1111   59.6349 H         1 <0>         0.0600 
     46 H19       -32.4922   28.7475   59.7607 H         1 <0>         0.0600 
     47 H20       -31.3727   28.2212   61.9088 H         1 <0>         0.0600 
     48 H21       -31.9638   26.5767   61.8165 H         1 <0>         0.0600 
     49 H22       -30.6483   26.1852   59.7413 H         1 <0>         0.0600 
     50 H23       -30.2052   27.8664   59.6786 H         1 <0>         0.0600 
     51 H24       -32.6097   25.8234   68.2527 H         1 <0>         0.0600 
     52 H25       -32.6177   27.2736   67.2641 H         1 <0>         0.0600 
     53 H26       -27.0770   26.0804   60.9011 H         1 <0>         0.0600 
     54 H27       -28.1654   25.5810   59.6315 H         1 <0>         0.0600 
     55 H28       -34.0839   26.0460   65.5762 H         1 <0>         0.0600 
     56 H29       -29.3156   24.2238   66.3484 H         1 <0>         0.0600 
     57 H30       -28.8816   27.6517   61.7643 H         1 <0>         0.0600 
     58 H31       -30.3243   24.1439   64.0750 H         1 <0>         0.0600 
     59 H32       -29.5466   26.9505   63.6782 H         1 <0>         0.3000 
     60 H33       -27.6531   26.5882   57.6152 H         1 <0>         0.3000 
     61 H34       -34.8980   27.2889   67.4712 H         1 <0>         0.4180 
     62 H35       -26.1173   28.7525   58.1496 H         1 <0>         0.3619 
@<TRIPOS>BOND
     1    1    7 1    
     2    1   28 1    
     3    1   29 1    
     4    1   30 1    
     5    2   14 1    
     6    2   31 1    
     7    2   32 1    
     8    2   33 1    
     9    3   14 1    
    10    3   34 1    
    11    3   35 1    
    12    3   36 1    
    13    4    5 1    
    14    4    6 1    
    15    4   37 1    
    16    4   38 1    
    17    5   13 1    
    18    5   39 1    
    19    5   40 1    
    20    6   22 1    
    21    6   41 1    
    22    6   42 1    
    23    7    8 1    
    24    7   43 1    
    25    7   44 1    
    26    8    9 1    
    27    8   45 1    
    28    8   46 1    
    29    9   10 1    
    30    9   47 1    
    31    9   48 1    
    32   10   15 1    
    33   10   49 1    
    34   10   50 1    
    35   11   13 1    
    36   11   23 1    
    37   11   51 1    
    38   11   52 1    
    39   12   15 1    
    40   12   17 1    
    41   12   53 1    
    42   12   54 1    
    43   13   22 1    
    44   13   55 1    
    45   14   16 1    
    46   14   56 1    
    47   15   18 1    
    48   15   57 1    
    49   16   19 1    
    50   16   20 1    
    51   16   58 1    
    52   17   21 am   BACKBONE|DICT|INTERRES
    53   17   25 2    
    54   18   20 am   BACKBONE|DICT|INTERRES
    55   18   26 2    
    56   19   22 am   BACKBONE|DICT|INTERRES
    57   19   27 2    
    58   20   59 1    
    59   21   24 1    
    60   21   60 1    
    61   23   61 1    
    62   24   62 1    
@<TRIPOS>SUBSTRUCTURE
     1 <0>         1 GROUP             0       ****    0 ROOT    
@<TRIPOS>MOLECULE
BB2_501_1LRU
62   62    1
SMALL
USER_CHARGES


@<TRIPOS>ATOM
      1 C1        -35.0436   29.0041   60.2977 C.3       1 <0>        -0.1800 
      2 C2        -28.1997   26.0072   66.1645 C.3       1 <0>        -0.1800 
      3 C3        -27.7878   23.8355   64.9535 C.3       1 <0>        -0.1800 
      4 C4        -33.8591   23.1866   65.6659 C.3       1 <0>        -0.1200 
      5 C5        -34.2728   24.2413   66.6770 C.3       1 <0>        -0.1200 
      6 C6        -32.4357   23.5792   65.2811 C.3       1 <0>        -0.0500 
      7 C7        -33.9354   28.4599   61.2051 C.3       1 <0>        -0.1200 
      8 C8        -32.7473   27.9324   60.3905 C.3       1 <0>        -0.1200 
      9 C9        -31.5829   27.4455   61.2596 C.3       1 <0>        -0.1200 
     10 C10       -30.3595   27.0618   60.4061 C.3       1 <0>        -0.1200 
     11 C11       -33.1891   26.3808   67.5233 C.3       1 <0>         0.1450 
     12 C12       -27.8837   26.4064   60.3119 C.3       1 <0>        -0.1200 
     13 C13       -33.4835   25.5007   66.2865 C.3       1 <0>         0.0100 
     14 C14       -28.8607   24.7638   65.5516 C.3       1 <0>        -0.0600 
     15 C15       -29.0811   26.7521   61.2201 C.3       1 <0>        -0.0600 
     16 C16       -29.9962   25.0847   64.5413 C.3       1 <0>         0.1400 
     17 C17       -27.4140   27.5958   59.4776 C.2       1 <0>         0.5000 
     18 C18       -29.3330   25.6057   62.1998 C.2       1 <0>         0.5000 
     19 C19       -31.2347   25.7581   65.1824 C.2       1 <0>         0.5000 
     20 N1        -29.5097   25.9587   63.4780 N.am      1 <0>        -0.5000 
     21 N2        -27.4090   27.4239   58.1541 N.am      1 <0>        -0.2244 
     22 N3        -32.2791   25.0013   65.5917 N.am      1 <0>        -0.1400 
     23 O1        -34.3860   26.8353   68.1244 O.3       1 <0>        -0.6830 
     24 O2        -26.4955   28.2235   57.4533 O.3       1 <0>        -0.4375 
     25 O3        -27.0086   28.6233   60.0191 O.2       1 <0>        -0.5000 
     26 O4        -29.4047   24.4426   61.7944 O.2       1 <0>        -0.5000 
     27 O5        -31.2271   26.9867   65.3009 O.2       1 <0>        -0.5000 
     28 H1        -35.8861   29.3732   60.8842 H         1 <0>         0.0600 
     29 H2        -35.4093   28.2241   59.6292 H         1 <0>         0.0600 
     30 H3        -34.6740   29.8234   59.6827 H         1 <0>         0.0600 
     31 H4        -27.6943   26.6216   65.4173 H         1 <0>         0.0600 
     32 H5        -28.9480   26.6211   66.6529 H         1 <0>         0.0600 
     33 H6        -27.4658   25.7289   66.9208 H         1 <0>         0.0600 
     34 H7        -27.2271   24.3273   64.1598 H         1 <0>         0.0600 
     35 H8        -27.0765   23.5243   65.7190 H         1 <0>         0.0600 
     36 H9        -28.2271   22.9295   64.5357 H         1 <0>         0.0600 
     37 H10       -34.5029   23.2524   64.7866 H         1 <0>         0.0600 
     38 H11       -33.9308   22.1702   66.0554 H         1 <0>         0.0600 
     39 H12       -35.3521   24.4038   66.6951 H         1 <0>         0.0600 
     40 H13       -33.9755   23.9065   67.6739 H         1 <0>         0.0600 
     41 H14       -32.2779   23.3591   64.2247 H         1 <0>         0.0600 
     42 H15       -31.6918   23.0283   65.8537 H         1 <0>         0.0600 
     43 H16       -33.5998   29.2495   61.8800 H         1 <0>         0.0600 
     44 H17       -34.3352   27.6623   61.8342 H         1 <0>         0.0600 
     45 H18       -33.0794   27.1208   59.7416 H         1 <0>         0.0600 
     46 H19       -32.3864   28.7256   59.7389 H         1 <0>         0.0600 
     47 H20       -31.2976   28.2245   61.9659 H         1 <0>         0.0600 
     48 H21       -31.9172   26.5975   61.8593 H         1 <0>         0.0600 
     49 H22       -30.6117   26.2136   59.7667 H         1 <0>         0.0600 
     50 H23       -30.1524   27.8903   59.7294 H         1 <0>         0.0600 
     51 H24       -32.6090   25.8180   68.2527 H         1 <0>         0.0600 
     52 H25       -32.6199   27.2702   67.2640 H         1 <0>         0.0600 
     53 H26       -27.0359   26.0775   60.9158 H         1 <0>         0.0600 
     54 H27       -28.1341   25.5703   59.6555 H         1 <0>         0.0600 
     55 H28       -34.0612   26.0717   65.5557 H         1 <0>         0.0600 
     56 H29       -29.3192   24.2242   66.3794 H         1 <0>         0.0600 
     57 H30       -28.8239   27.6399   61.8026 H         1 <0>         0.0600 
     58 H31       -30.2923   24.1400   64.0909 H         1 <0>         0.0600 
     59 H32       -29.4527   26.9413   63.7133 H         1 <0>         0.3000 
     60 H33       -27.6674   26.5938   57.6274 H         1 <0>         0.3000 
     61 H34       -34.9058   27.2596   67.4558 H         1 <0>         0.4180 
     62 H35       -26.1394   28.7761   58.1367 H         1 <0>         0.3619 
@<TRIPOS>BOND
     1    1    7 1    
     2    1   28 1    
     3    1   29 1    
     4    1   30 1    
     5    2   14 1    
     6    2   31 1    
     7    2   32 1    
     8    2   33 1    
     9    3   14 1    
    10    3   34 1    
    11    3   35 1    
    12    3   36 1    
    13    4    5 1    
    14    4    6 1    
    15    4   37 1    
    16    4   38 1    
    17    5   13 1    
    18    5   39 1    
    19    5   40 1    
    20    6   22 1    
    21    6   41 1    
    22    6   42 1    
    23    7    8 1    
    24    7   43 1    
    25    7   44 1    
    26    8    9 1    
    27    8   45 1    
    28    8   46 1    
    29    9   10 1    
    30    9   47 1    
    31    9   48 1    
    32   10   15 1    
    33   10   49 1    
    34   10   50 1    
    35   11   13 1    
    36   11   23 1    
    37   11   51 1    
    38   11   52 1    
    39   12   15 1    
    40   12   17 1    
    41   12   53 1    
    42   12   54 1    
    43   13   22 1    
    44   13   55 1    
    45   14   16 1    
    46   14   56 1    
    47   15   18 1    
    48   15   57 1    
    49   16   19 1    
    50   16   20 1    
    51   16   58 1    
    52   17   21 am   BACKBONE|DICT|INTERRES
    53   17   25 2    
    54   18   20 am   BACKBONE|DICT|INTERRES
    55   18   26 2    
    56   19   22 am   BACKBONE|DICT|INTERRES
    57   19   27 2    
    58   20   59 1    
    59   21   24 1    
    60   21   60 1    
    61   23   61 1    
    62   24   62 1    
@<TRIPOS>SUBSTRUCTURE
     1 <0>         1 GROUP             0       ****    0 ROOT    
@<TRIPOS>MOLECULE
BB2_501_1LRU
62   62    1
SMALL
USER_CHARGES


@<TRIPOS>ATOM
      1 C1        -35.0674   28.9785   60.2759 C.3       1 <0>        -0.1800 
      2 C2        -28.1836   26.0103   66.1544 C.3       1 <0>        -0.1800 
      3 C3        -27.7714   23.8475   64.9307 C.3       1 <0>        -0.1800 
      4 C4        -33.8696   23.2035   65.6532 C.3       1 <0>        -0.1200 
      5 C5        -34.2813   24.2539   66.6671 C.3       1 <0>        -0.1200 
      6 C6        -32.4400   23.5832   65.2784 C.3       1 <0>        -0.0500 
      7 C7        -33.9657   28.4176   61.1794 C.3       1 <0>        -0.1200 
      8 C8        -32.7715   27.9070   60.3642 C.3       1 <0>        -0.1200 
      9 C9        -31.6036   27.4341   61.2335 C.3       1 <0>        -0.1200 
     10 C10       -30.3781   27.0441   60.3856 C.3       1 <0>        -0.1200 
     11 C11       -33.1828   26.3886   67.5211 C.3       1 <0>         0.1450 
     12 C12       -27.8961   26.4040   60.3054 C.3       1 <0>        -0.1200 
     13 C13       -33.4803   25.5082   66.2849 C.3       1 <0>         0.0100 
     14 C14       -28.8439   24.7649   65.5444 C.3       1 <0>        -0.0600 
     15 C15       -29.1016   26.7427   61.2061 C.3       1 <0>        -0.0600 
     16 C16       -29.9894   25.0779   64.5423 C.3       1 <0>         0.1400 
     17 C17       -27.4171   27.5951   59.4769 C.2       1 <0>         0.5000 
     18 C18       -29.3472   25.5967   62.1906 C.2       1 <0>         0.5000 
     19 C19       -31.2228   25.7540   65.1909 C.2       1 <0>         0.5000 
     20 N1        -29.5135   25.9495   63.4718 N.am      1 <0>        -0.5000 
     21 N2        -27.4098   27.4224   58.1525 N.am      1 <0>        -0.2244 
     22 N3        -32.2772   25.0038   65.5934 N.am      1 <0>        -0.1400 
     23 O1        -34.3793   26.8468   68.1200 O.3       1 <0>        -0.6830 
     24 O2        -26.4961   28.2237   57.4529 O.3       1 <0>        -0.4375 
     25 O3        -27.0085   28.6185   60.0236 O.2       1 <0>        -0.5000 
     26 O4        -29.4238   24.4352   61.7871 O.2       1 <0>        -0.5000 
     27 O5        -31.2064   26.9812   65.3170 O.2       1 <0>        -0.5000 
     28 H1        -35.9280   29.3102   60.8598 H         1 <0>         0.0600 
     29 H2        -35.4095   28.2203   59.5733 H         1 <0>         0.0600 
     30 H3        -34.7032   29.8234   59.6988 H         1 <0>         0.0600 
     31 H4        -27.6898   26.6239   65.4008 H         1 <0>         0.0600 
     32 H5        -28.9259   26.6230   66.6528 H         1 <0>         0.0600 
     33 H6        -27.4372   25.7348   66.8990 H         1 <0>         0.0600 
     34 H7        -27.2198   24.3507   64.1345 H         1 <0>         0.0600 
     35 H8        -27.0480   23.5346   65.6853 H         1 <0>         0.0600 
     36 H9        -28.2094   22.9419   64.5078 H         1 <0>         0.0600 
     37 H10       -34.5084   23.2724   64.7715 H         1 <0>         0.0600 
     38 H11       -33.9461   22.1856   66.0368 H         1 <0>         0.0600 
     39 H12       -35.3571   24.4316   66.6751 H         1 <0>         0.0600 
     40 H13       -33.9985   23.9139   67.6648 H         1 <0>         0.0600 
     41 H14       -32.2826   23.3690   64.2201 H         1 <0>         0.0600 
     42 H15       -31.7063   23.0238   65.8527 H         1 <0>         0.0600 
     43 H16       -33.6391   29.1917   61.8732 H         1 <0>         0.0600 
     44 H17       -34.3710   27.6078   61.7873 H         1 <0>         0.0600 
     45 H18       -33.0922   27.0920   59.7120 H         1 <0>         0.0600 
     46 H19       -32.4215   28.7044   59.7124 H         1 <0>         0.0600 
     47 H20       -31.3236   28.2238   61.9302 H         1 <0>         0.0600 
     48 H21       -31.9324   26.5901   61.8417 H         1 <0>         0.0600 
     49 H22       -30.6267   26.1901   59.7536 H         1 <0>         0.0600 
     50 H23       -30.1702   27.8677   59.7042 H         1 <0>         0.0600 
     51 H24       -32.6091   25.8220   68.2531 H         1 <0>         0.0600 
     52 H25       -32.6098   27.2759   67.2716 H         1 <0>         0.0600 
     53 H26       -27.0532   26.0697   60.9141 H         1 <0>         0.0600 
     54 H27       -28.1458   25.5705   59.6446 H         1 <0>         0.0600 
     55 H28       -34.0463   26.0849   65.5491 H         1 <0>         0.0600 
     56 H29       -29.2918   24.2233   66.3768 H         1 <0>         0.0600 
     57 H30       -28.8524   27.6335   61.7877 H         1 <0>         0.0600 
     58 H31       -30.2874   24.1318   64.1003 H         1 <0>         0.0600 
     59 H32       -29.4598   26.9310   63.7070 H         1 <0>         0.3000 
     60 H33       -27.6657   26.5920   57.6284 H         1 <0>         0.3000 
     61 H34       -34.8878   27.2883   67.4558 H         1 <0>         0.4180 
     62 H35       -26.1480   28.7860   58.1332 H         1 <0>         0.3619 
@<TRIPOS>BOND
     1    1    7 1    
     2    1   28 1    
     3    1   29 1    
     4    1   30 1    
     5    2   14 1    
     6    2   31 1    
     7    2   32 1    
     8    2   33 1    
     9    3   14 1    
    10    3   34 1    
    11    3   35 1    
    12    3   36 1    
    13    4    5 1    
    14    4    6 1    
    15    4   37 1    
    16    4   38 1    
    17    5   13 1    
    18    5   39 1    
    19    5   40 1    
    20    6   22 1    
    21    6   41 1    
    22    6   42 1    
    23    7    8 1    
    24    7   43 1    
    25    7   44 1    
    26    8    9 1    
    27    8   45 1    
    28    8   46 1    
    29    9   10 1    
    30    9   47 1    
    31    9   48 1    
    32   10   15 1    
    33   10   49 1    
    34   10   50 1    
    35   11   13 1    
    36   11   23 1    
    37   11   51 1    
    38   11   52 1    
    39   12   15 1    
    40   12   17 1    
    41   12   53 1    
    42   12   54 1    
    43   13   22 1    
    44   13   55 1    
    45   14   16 1    
    46   14   56 1    
    47   15   18 1    
    48   15   57 1    
    49   16   19 1    
    50   16   20 1    
    51   16   58 1    
    52   17   21 am   BACKBONE|DICT|INTERRES
    53   17   25 2    
    54   18   20 am   BACKBONE|DICT|INTERRES
    55   18   26 2    
    56   19   22 am   BACKBONE|DICT|INTERRES
    57   19   27 2    
    58   20   59 1    
    59   21   24 1    
    60   21   60 1    
    61   23   61 1    
    62   24   62 1    
@<TRIPOS>SUBSTRUCTURE
     1 <0>         1 GROUP             0       ****    0 ROOT    
@<TRIPOS>MOLECULE
BB2_501_1LRU
62   62    1
SMALL
USER_CHARGES


@<TRIPOS>ATOM
      1 C1        -35.1301   28.8495   60.2313 C.3       1 <0>        -0.1800 
      2 C2        -27.9086   26.0060   65.9610 C.3       1 <0>        -0.1800 
      3 C3        -27.5004   23.8064   64.7753 C.3       1 <0>        -0.1800 
      4 C4        -33.6337   22.8016   65.0291 C.3       1 <0>        -0.1200 
      5 C5        -34.1256   23.5965   66.2344 C.3       1 <0>        -0.1200 
      6 C6        -32.1845   23.2578   64.8429 C.3       1 <0>        -0.0500 
      7 C7        -33.8589   28.0433   60.5194 C.3       1 <0>        -0.1200 
      8 C8        -32.9288   28.7465   61.5181 C.3       1 <0>        -0.1200 
      9 C9        -31.7481   27.8629   61.9446 C.3       1 <0>        -0.1200 
     10 C10       -30.7618   27.6000   60.7906 C.3       1 <0>        -0.1200 
     11 C11       -33.0419   25.4612   67.5551 C.3       1 <0>         0.1450 
     12 C12       -28.6053   26.5043   59.9903 C.3       1 <0>        -0.1200 
     13 C13       -33.3424   24.9098   66.1643 C.3       1 <0>         0.0100 
     14 C14       -28.5561   24.7094   65.4361 C.3       1 <0>        -0.0600 
     15 C15       -29.4393   26.9271   61.2254 C.3       1 <0>        -0.0600 
     16 C16       -29.7915   24.9573   64.5222 C.3       1 <0>         0.1400 
     17 C17       -27.7398   27.6352   59.4189 C.2       1 <0>         0.5000 
     18 C18       -29.7029   25.7142   62.1336 C.2       1 <0>         0.5000 
     19 C19       -31.0438   25.4415   65.2841 C.2       1 <0>         0.5000 
     20 N1        -29.4717   25.8918   63.4417 N.am      1 <0>        -0.5000 
     21 N2        -27.8078   27.8324   58.0951 N.am      1 <0>        -0.2244 
     22 N3        -32.1228   24.5931   65.4264 N.am      1 <0>        -0.1400 
     23 O1        -34.1976   25.9835   68.1803 O.3       1 <0>        -0.6830 
     24 O2        -26.6888   28.4798   57.5297 O.3       1 <0>        -0.4375 
     25 O3        -26.9908   28.2761   60.1576 O.2       1 <0>        -0.5000 
     26 O4        -30.0874   24.6493   61.6509 O.2       1 <0>        -0.5000 
     27 O5        -31.0427   26.5773   65.7646 O.2       1 <0>        -0.5000 
     28 H1        -35.7694   28.3258   59.5201 H         1 <0>         0.0600 
     29 H2        -34.8904   29.8249   59.8070 H         1 <0>         0.0600 
     30 H3        -35.7086   29.0119   61.1411 H         1 <0>         0.0600 
     31 H4        -27.4911   26.6050   65.1514 H         1 <0>         0.0600 
     32 H5        -28.6278   26.6257   66.4968 H         1 <0>         0.0600 
     33 H6        -27.0965   25.7828   66.6533 H         1 <0>         0.0600 
     34 H7        -27.0301   24.2932   63.9218 H         1 <0>         0.0600 
     35 H8        -26.7092   23.5493   65.4799 H         1 <0>         0.0600 
     36 H9        -27.9425   22.8735   64.4246 H         1 <0>         0.0600 
     37 H10       -34.2186   23.0718   64.1499 H         1 <0>         0.0600 
     38 H11       -33.7232   21.7240   65.1669 H         1 <0>         0.0600 
     39 H12       -35.2050   23.7476   66.2308 H         1 <0>         0.0600 
     40 H13       -33.8693   23.0660   67.1514 H         1 <0>         0.0600 
     41 H14       -31.8950   23.2558   63.7920 H         1 <0>         0.0600 
     42 H15       -31.5010   22.6019   65.3820 H         1 <0>         0.0600 
     43 H16       -34.1363   27.0617   60.9056 H         1 <0>         0.0600 
     44 H17       -33.3262   27.8672   59.5841 H         1 <0>         0.0600 
     45 H18       -32.5496   29.6677   61.0736 H         1 <0>         0.0600 
     46 H19       -33.4996   29.0411   62.3997 H         1 <0>         0.0600 
     47 H20       -31.2196   28.3395   62.7712 H         1 <0>         0.0600 
     48 H21       -32.1346   26.9186   62.3297 H         1 <0>         0.0600 
     49 H22       -31.2505   26.9968   60.0237 H         1 <0>         0.0600 
     50 H23       -30.5298   28.5533   60.3143 H         1 <0>         0.0600 
     51 H24       -32.6015   24.7010   68.2003 H         1 <0>         0.0600 
     52 H25       -32.3064   26.2625   67.4793 H         1 <0>         0.0600 
     53 H26       -27.9841   25.6393   60.2300 H         1 <0>         0.0600 
     54 H27       -29.2731   26.1816   59.1911 H         1 <0>         0.0600 
     55 H28       -33.9029   25.6667   65.6158 H         1 <0>         0.0600 
     56 H29       -28.9066   24.1649   66.3137 H         1 <0>         0.0600 
     57 H30       -28.8704   27.6693   61.7891 H         1 <0>         0.0600 
     58 H31       -30.0562   24.0100   64.0525 H         1 <0>         0.0600 
     59 H32       -29.0332   26.7555   63.7285 H         1 <0>         0.3000 
     60 H33       -28.2615   27.2354   57.4181 H         1 <0>         0.3000 
     61 H34       -34.8481   25.2996   68.2301 H         1 <0>         0.4180 
     62 H35       -26.9993   28.7241   56.6690 H         1 <0>         0.3619 
@<TRIPOS>BOND
     1    1    7 1    
     2    1   28 1    
     3    1   29 1    
     4    1   30 1    
     5    2   14 1    
     6    2   31 1    
     7    2   32 1    
     8    2   33 1    
     9    3   14 1    
    10    3   34 1    
    11    3   35 1    
    12    3   36 1    
    13    4    5 1    
    14    4    6 1    
    15    4   37 1    
    16    4   38 1    
    17    5   13 1    
    18    5   39 1    
    19    5   40 1    
    20    6   22 1    
    21    6   41 1    
    22    6   42 1    
    23    7    8 1    
    24    7   43 1    
    25    7   44 1    
    26    8    9 1    
    27    8   45 1    
    28    8   46 1    
    29    9   10 1    
    30    9   47 1    
    31    9   48 1    
    32   10   15 1    
    33   10   49 1    
    34   10   50 1    
    35   11   13 1    
    36   11   23 1    
    37   11   51 1    
    38   11   52 1    
    39   12   15 1    
    40   12   17 1    
    41   12   53 1    
    42   12   54 1    
    43   13   22 1    
    44   13   55 1    
    45   14   16 1    
    46   14   56 1    
    47   15   18 1    
    48   15   57 1    
    49   16   19 1    
    50   16   20 1    
    51   16   58 1    
    52   17   21 am   BACKBONE|DICT|INTERRES
    53   17   25 2    
    54   18   20 am   BACKBONE|DICT|INTERRES
    55   18   26 2    
    56   19   22 am   BACKBONE|DICT|INTERRES
    57   19   27 2    
    58   20   59 1    
    59   21   24 1    
    60   21   60 1    
    61   23   61 1    
    62   24   62 1    
@<TRIPOS>SUBSTRUCTURE
     1 <0>         1 GROUP             0       ****    0 ROOT    
@<TRIPOS>MOLECULE
BB2_501_1LRU
62   62    1
SMALL
USER_CHARGES


@<TRIPOS>ATOM
      1 C1        -35.0383   29.0207   60.3444 C.3       1 <0>        -0.1800 
      2 C2        -28.1673   26.0075   66.1549 C.3       1 <0>        -0.1800 
      3 C3        -27.7613   23.8266   64.9502 C.3       1 <0>        -0.1800 
      4 C4        -33.7915   23.1334   65.7157 C.3       1 <0>        -0.1200 
      5 C5        -34.2205   24.1951   66.7130 C.3       1 <0>        -0.1200 
      6 C6        -32.3892   23.5563   65.2955 C.3       1 <0>        -0.0500 
      7 C7        -33.9240   28.4904   61.2465 C.3       1 <0>        -0.1200 
      8 C8        -32.7358   27.9748   60.4235 C.3       1 <0>        -0.1200 
      9 C9        -31.5792   27.4617   61.2834 C.3       1 <0>        -0.1200 
     10 C10       -30.3588   27.0965   60.4200 C.3       1 <0>        -0.1200 
     11 C11       -33.1847   26.3719   67.5154 C.3       1 <0>         0.1450 
     12 C12       -27.8881   26.4117   60.3129 C.3       1 <0>        -0.1200 
     13 C13       -33.4643   25.4650   66.2953 C.3       1 <0>         0.0100 
     14 C14       -28.8291   24.7591   65.5550 C.3       1 <0>        -0.0600 
     15 C15       -29.0803   26.7604   61.2262 C.3       1 <0>        -0.0600 
     16 C16       -29.9699   25.0707   64.5456 C.3       1 <0>         0.1400 
     17 C17       -27.4141   27.5957   59.4752 C.2       1 <0>         0.5000 
     18 C18       -29.3395   25.6070   62.1955 C.2       1 <0>         0.5000 
     19 C19       -31.2115   25.7419   65.1870 C.2       1 <0>         0.5000 
     20 N1        -29.4874   25.9453   63.4831 N.am      1 <0>        -0.5000 
     21 N2        -27.4096   27.4233   58.1518 N.am      1 <0>        -0.2244 
     22 N3        -32.2539   24.9803   65.6003 N.am      1 <0>        -0.1400 
     23 O1        -34.3848   26.8275   68.1094 O.3       1 <0>        -0.6830 
     24 O2        -26.4990   28.2233   57.4532 O.3       1 <0>        -0.4375 
     25 O3        -27.0081   28.6213   60.0161 O.2       1 <0>        -0.5000 
     26 O4        -29.4486   24.4521   61.7775 O.2       1 <0>        -0.5000 
     27 O5        -31.2106   26.9690   65.2974 O.2       1 <0>        -0.5000 
     28 H1        -35.8715   29.4016   60.9311 H         1 <0>         0.0600 
     29 H2        -35.4091   28.2286   59.7001 H         1 <0>         0.0600 
     30 H3        -34.6745   29.8225   59.7057 H         1 <0>         0.0600 
     31 H4        -27.6769   26.6171   65.3952 H         1 <0>         0.0600 
     32 H5        -28.9080   26.6235   66.6528 H         1 <0>         0.0600 
     33 H6        -27.4169   25.7369   66.8966 H         1 <0>         0.0600 
     34 H7        -27.2141   24.3100   64.1420 H         1 <0>         0.0600 
     35 H8        -27.0369   23.5192   65.7035 H         1 <0>         0.0600 
     36 H9        -28.2094   22.9196   64.5470 H         1 <0>         0.0600 
     37 H10       -34.4586   23.1502   64.8523 H         1 <0>         0.0600 
     38 H11       -33.8135   22.1263   66.1321 H         1 <0>         0.0600 
     39 H12       -35.3018   24.3340   66.7407 H         1 <0>         0.0600 
     40 H13       -33.9060   23.8817   67.7094 H         1 <0>         0.0600 
     41 H14       -32.2551   23.3432   64.2345 H         1 <0>         0.0600 
     42 H15       -31.6228   23.0265   65.8536 H         1 <0>         0.0600 
     43 H16       -33.5875   29.2822   61.9184 H         1 <0>         0.0600 
     44 H17       -34.3093   27.6900   61.8800 H         1 <0>         0.0600 
     45 H18       -33.0688   27.1800   59.7551 H         1 <0>         0.0600 
     46 H19       -32.3670   28.7799   59.7918 H         1 <0>         0.0600 
     47 H20       -31.2960   28.2237   62.0083 H         1 <0>         0.0600 
     48 H21       -31.9164   26.5996   61.8569 H         1 <0>         0.0600 
     49 H22       -30.6120   26.2675   59.7581 H         1 <0>         0.0600 
     50 H23       -30.1458   27.9438   59.7705 H         1 <0>         0.0600 
     51 H24       -32.6093   25.8167   68.2531 H         1 <0>         0.0600 
     52 H25       -32.6097   27.2564   67.2551 H         1 <0>         0.0600 
     53 H26       -27.0407   26.0833   60.9129 H         1 <0>         0.0600 
     54 H27       -28.1420   25.5753   59.6591 H         1 <0>         0.0600 
     55 H28       -34.0559   26.0141   65.5591 H         1 <0>         0.0600 
     56 H29       -29.2815   24.2235   66.3893 H         1 <0>         0.0600 
     57 H30       -28.8130   27.6409   61.8174 H         1 <0>         0.0600 
     58 H31       -30.2603   24.1233   64.0966 H         1 <0>         0.0600 
     59 H32       -29.4089   26.9222   63.7293 H         1 <0>         0.3000 
     60 H33       -27.6618   26.5905   57.6274 H         1 <0>         0.3000 
     61 H34       -34.8904   27.2758   67.4497 H         1 <0>         0.4180 
     62 H35       -26.1432   28.7770   58.1343 H         1 <0>         0.3619 
@<TRIPOS>BOND
     1    1    7 1    
     2    1   28 1    
     3    1   29 1    
     4    1   30 1    
     5    2   14 1    
     6    2   31 1    
     7    2   32 1    
     8    2   33 1    
     9    3   14 1    
    10    3   34 1    
    11    3   35 1    
    12    3   36 1    
    13    4    5 1    
    14    4    6 1    
    15    4   37 1    
    16    4   38 1    
    17    5   13 1    
    18    5   39 1    
    19    5   40 1    
    20    6   22 1    
    21    6   41 1    
    22    6   42 1    
    23    7    8 1    
    24    7   43 1    
    25    7   44 1    
    26    8    9 1    
    27    8   45 1    
    28    8   46 1    
    29    9   10 1    
    30    9   47 1    
    31    9   48 1    
    32   10   15 1    
    33   10   49 1    
    34   10   50 1    
    35   11   13 1    
    36   11   23 1    
    37   11   51 1    
    38   11   52 1    
    39   12   15 1    
    40   12   17 1    
    41   12   53 1    
    42   12   54 1    
    43   13   22 1    
    44   13   55 1    
    45   14   16 1    
    46   14   56 1    
    47   15   18 1    
    48   15   57 1    
    49   16   19 1    
    50   16   20 1    
    51   16   58 1    
    52   17   21 am   BACKBONE|DICT|INTERRES
    53   17   25 2    
    54   18   20 am   BACKBONE|DICT|INTERRES
    55   18   26 2    
    56   19   22 am   BACKBONE|DICT|INTERRES
    57   19   27 2    
    58   20   59 1    
    59   21   24 1    
    60   21   60 1    
    61   23   61 1    
    62   24   62 1    
@<TRIPOS>SUBSTRUCTURE
     1 <0>         1 GROUP             0       ****    0 ROOT    
@<TRIPOS>MOLECULE
BB2_501_1LRU
62   62    1
SMALL
USER_CHARGES


@<TRIPOS>ATOM
      1 C1        -35.1170   28.9108   60.3792 C.3       1 <0>        -0.1800 
      2 C2        -28.1893   26.0083   66.1386 C.3       1 <0>        -0.1800 
      3 C3        -27.8056   23.8472   64.8997 C.3       1 <0>        -0.1800 
      4 C4        -33.9380   23.2202   65.5079 C.3       1 <0>        -0.1200 
      5 C5        -34.3655   24.2221   66.5619 C.3       1 <0>        -0.1200 
      6 C6        -32.4859   23.5844   65.2197 C.3       1 <0>        -0.0500 
      7 C7        -34.0166   28.2971   61.2499 C.3       1 <0>        -0.1200 
      8 C8        -32.7974   27.8847   60.4125 C.3       1 <0>        -0.1200 
      9 C9        -31.6108   27.4290   61.2653 C.3       1 <0>        -0.1200 
     10 C10       -30.3938   27.0361   60.4054 C.3       1 <0>        -0.1200 
     11 C11       -33.2012   26.2359   67.5936 C.3       1 <0>         0.1450 
     12 C12       -27.9033   26.4161   60.3090 C.3       1 <0>        -0.1200 
     13 C13       -33.5208   25.4784   66.2856 C.3       1 <0>         0.0100 
     14 C14       -28.8642   24.7703   65.5329 C.3       1 <0>        -0.0600 
     15 C15       -29.1038   26.7564   61.2169 C.3       1 <0>        -0.0600 
     16 C16       -30.0221   25.0998   64.5490 C.3       1 <0>         0.1400 
     17 C17       -27.4200   27.6000   59.4759 C.2       1 <0>         0.5000 
     18 C18       -29.3262   25.6186   62.2142 C.2       1 <0>         0.5000 
     19 C19       -31.2617   25.7537   65.2072 C.2       1 <0>         0.5000 
     20 N1        -29.5662   25.9825   63.4812 N.am      1 <0>        -0.5000 
     21 N2        -27.4093   27.4235   58.1531 N.am      1 <0>        -0.2244 
     22 N3        -32.3218   24.9942   65.5740 N.am      1 <0>        -0.1400 
     23 O1        -34.3907   26.6265   68.2525 O.3       1 <0>        -0.6830 
     24 O2        -26.4968   28.2237   57.4530 O.3       1 <0>        -0.4375 
     25 O3        -27.0085   28.6235   60.0160 O.2       1 <0>        -0.5000 
     26 O4        -29.3211   24.4465   61.8337 O.2       1 <0>        -0.5000 
     27 O5        -31.2432   26.9734   65.3788 O.2       1 <0>        -0.5000 
     28 H1        -36.0003   29.1487   60.9721 H         1 <0>         0.0600 
     29 H2        -35.4096   28.2177   59.5918 H         1 <0>         0.0600 
     30 H3        -34.7746   29.8247   59.8985 H         1 <0>         0.0600 
     31 H4        -27.7059   26.6198   65.3796 H         1 <0>         0.0600 
     32 H5        -28.9208   26.6228   66.6528 H         1 <0>         0.0600 
     33 H6        -27.4231   25.7282   66.8603 H         1 <0>         0.0600 
     34 H7        -27.2708   24.3477   64.0934 H         1 <0>         0.0600 
     35 H8        -27.0705   23.5318   65.6403 H         1 <0>         0.0600 
     36 H9        -28.2556   22.9442   64.4876 H         1 <0>         0.0600 
     37 H10       -34.5371   23.3597   64.6054 H         1 <0>         0.0600 
     38 H11       -34.0574   22.1834   65.8276 H         1 <0>         0.0600 
     39 H12       -35.4369   24.4217   66.5366 H         1 <0>         0.0600 
     40 H13       -34.1271   23.8157   67.5473 H         1 <0>         0.0600 
     41 H14       -32.2731   23.3734   64.1718 H         1 <0>         0.0600 
     42 H15       -31.7964   23.0235   65.8407 H         1 <0>         0.0600 
     43 H16       -33.7225   29.0177   62.0155 H         1 <0>         0.0600 
     44 H17       -34.4085   27.4256   61.7800 H         1 <0>         0.0600 
     45 H18       -33.0822   27.0904   59.7234 H         1 <0>         0.0600 
     46 H19       -32.4797   28.7243   59.8008 H         1 <0>         0.0600 
     47 H20       -31.3281   28.2299   61.9501 H         1 <0>         0.0600 
     48 H21       -31.9248   26.5917   61.8869 H         1 <0>         0.0600 
     49 H22       -30.6453   26.1665   59.7963 H         1 <0>         0.0600 
     50 H23       -30.2010   27.8453   59.7022 H         1 <0>         0.0600 
     51 H24       -32.6107   25.6024   68.2531 H         1 <0>         0.0600 
     52 H25       -32.6200   27.1383   67.4123 H         1 <0>         0.0600 
     53 H26       -27.0596   26.0819   60.9138 H         1 <0>         0.0600 
     54 H27       -28.1527   25.5791   59.6526 H         1 <0>         0.0600 
     55 H28       -34.0675   26.1345   65.6020 H         1 <0>         0.0600 
     56 H29       -29.3046   24.2233   66.3666 H         1 <0>         0.0600 
     57 H30       -28.8567   27.6555   61.7854 H         1 <0>         0.0600 
     58 H31       -30.3143   24.1566   64.0950 H         1 <0>         0.0600 
     59 H32       -29.5672   26.9697   63.7030 H         1 <0>         0.3000 
     60 H33       -27.6609   26.5937   57.6308 H         1 <0>         0.3000 
     61 H34       -34.9418   25.8622   68.3449 H         1 <0>         0.4180 
     62 H35       -26.1523   28.7865   58.1337 H         1 <0>         0.3619 
@<TRIPOS>BOND
     1    1    7 1    
     2    1   28 1    
     3    1   29 1    
     4    1   30 1    
     5    2   14 1    
     6    2   31 1    
     7    2   32 1    
     8    2   33 1    
     9    3   14 1    
    10    3   34 1    
    11    3   35 1    
    12    3   36 1    
    13    4    5 1    
    14    4    6 1    
    15    4   37 1    
    16    4   38 1    
    17    5   13 1    
    18    5   39 1    
    19    5   40 1    
    20    6   22 1    
    21    6   41 1    
    22    6   42 1    
    23    7    8 1    
    24    7   43 1    
    25    7   44 1    
    26    8    9 1    
    27    8   45 1    
    28    8   46 1    
    29    9   10 1    
    30    9   47 1    
    31    9   48 1    
    32   10   15 1    
    33   10   49 1    
    34   10   50 1    
    35   11   13 1    
    36   11   23 1    
    37   11   51 1    
    38   11   52 1    
    39   12   15 1    
    40   12   17 1    
    41   12   53 1    
    42   12   54 1    
    43   13   22 1    
    44   13   55 1    
    45   14   16 1    
    46   14   56 1    
    47   15   18 1    
    48   15   57 1    
    49   16   19 1    
    50   16   20 1    
    51   16   58 1    
    52   17   21 am   BACKBONE|DICT|INTERRES
    53   17   25 2    
    54   18   20 am   BACKBONE|DICT|INTERRES
    55   18   26 2    
    56   19   22 am   BACKBONE|DICT|INTERRES
    57   19   27 2    
    58   20   59 1    
    59   21   24 1    
    60   21   60 1    
    61   23   61 1    
    62   24   62 1    
@<TRIPOS>SUBSTRUCTURE
     1 <0>         1 GROUP             0       ****    0 ROOT    
@<TRIPOS>MOLECULE
BB2_501_1LRU
62   62    1
SMALL
USER_CHARGES


@<TRIPOS>ATOM
      1 C1        -35.0387   29.0225   60.4583 C.3       1 <0>        -0.1800 
      2 C2        -28.1553   26.0071   66.1574 C.3       1 <0>        -0.1800 
      3 C3        -27.7603   23.8432   64.9224 C.3       1 <0>        -0.1800 
      4 C4        -33.7938   23.1297   65.7084 C.3       1 <0>        -0.1200 
      5 C5        -34.2236   24.1831   66.7114 C.3       1 <0>        -0.1200 
      6 C6        -32.3902   23.5573   65.2979 C.3       1 <0>        -0.0500 
      7 C7        -33.8979   28.5067   61.3387 C.3       1 <0>        -0.1200 
      8 C8        -32.7310   27.9883   60.4930 C.3       1 <0>        -0.1200 
      9 C9        -31.5645   27.4652   61.3320 C.3       1 <0>        -0.1200 
     10 C10       -30.3557   27.0889   60.4535 C.3       1 <0>        -0.1200 
     11 C11       -33.2062   26.3701   67.5165 C.3       1 <0>         0.1450 
     12 C12       -27.8873   26.4119   60.3088 C.3       1 <0>        -0.1200 
     13 C13       -33.4724   25.4580   66.2986 C.3       1 <0>         0.0100 
     14 C14       -28.8211   24.7649   65.5490 C.3       1 <0>        -0.0600 
     15 C15       -29.0619   26.7645   61.2414 C.3       1 <0>        -0.0600 
     16 C16       -29.9727   25.0881   64.5595 C.3       1 <0>         0.1400 
     17 C17       -27.4158   27.5990   59.4752 C.2       1 <0>         0.5000 
     18 C18       -29.3052   25.6150   62.2219 C.2       1 <0>         0.5000 
     19 C19       -31.2136   25.7466   65.2105 C.2       1 <0>         0.5000 
     20 N1        -29.5070   25.9702   63.4954 N.am      1 <0>        -0.5000 
     21 N2        -27.4094   27.4245   58.1539 N.am      1 <0>        -0.2244 
     22 N3        -32.2576   24.9804   65.6123 N.am      1 <0>        -0.1400 
     23 O1        -34.4186   26.7857   68.1170 O.3       1 <0>        -0.6830 
     24 O2        -26.4998   28.2236   57.4534 O.3       1 <0>        -0.4375 
     25 O3        -27.0093   28.6236   60.0173 O.2       1 <0>        -0.5000 
     26 O4        -29.3461   24.4511   61.8196 O.2       1 <0>        -0.5000 
     27 O5        -31.2183   26.9734   65.3316 O.2       1 <0>        -0.5000 
     28 H1        -35.8731   29.3934   61.0550 H         1 <0>         0.0600 
     29 H2        -35.4080   28.2240   59.8170 H         1 <0>         0.0600 
     30 H3        -34.6963   29.8233   59.8063 H         1 <0>         0.0600 
     31 H4        -27.6585   26.6190   65.4071 H         1 <0>         0.0600 
     32 H5        -28.8983   26.6236   66.6533 H         1 <0>         0.0600 
     33 H6        -27.4108   25.7312   66.9014 H         1 <0>         0.0600 
     34 H7        -27.2328   24.3373   64.1078 H         1 <0>         0.0600 
     35 H8        -27.0175   23.5359   65.6599 H         1 <0>         0.0600 
     36 H9        -28.2097   22.9344   64.5218 H         1 <0>         0.0600 
     37 H10       -34.4563   23.1542   64.8408 H         1 <0>         0.0600 
     38 H11       -33.8141   22.1195   66.1171 H         1 <0>         0.0600 
     39 H12       -35.3052   24.3194   66.7354 H         1 <0>         0.0600 
     40 H13       -33.9139   23.8680   67.7094 H         1 <0>         0.0600 
     41 H14       -32.2499   23.3507   64.2354 H         1 <0>         0.0600 
     42 H15       -31.6233   23.0269   65.8529 H         1 <0>         0.0600 
     43 H16       -33.5542   29.3073   61.9935 H         1 <0>         0.0600 
     44 H17       -34.2683   27.7128   61.9859 H         1 <0>         0.0600 
     45 H18       -33.0797   27.1975   59.8275 H         1 <0>         0.0600 
     46 H19       -32.3669   28.7908   59.8548 H         1 <0>         0.0600 
     47 H20       -31.2609   28.2241   62.0554 H         1 <0>         0.0600 
     48 H21       -31.9016   26.6068   61.9138 H         1 <0>         0.0600 
     49 H22       -30.6227   26.2491   59.8094 H         1 <0>         0.0600 
     50 H23       -30.1564   27.9260   59.7841 H         1 <0>         0.0600 
     51 H24       -32.6093   25.8347   68.2527 H         1 <0>         0.0600 
     52 H25       -32.6625   27.2740   67.2498 H         1 <0>         0.0600 
     53 H26       -27.0345   26.0661   60.8939 H         1 <0>         0.0600 
     54 H27       -28.1666   25.5844   59.6533 H         1 <0>         0.0600 
     55 H28       -34.0644   25.9972   65.5573 H         1 <0>         0.0600 
     56 H29       -29.2657   24.2234   66.3836 H         1 <0>         0.0600 
     57 H30       -28.7895   27.6494   61.8208 H         1 <0>         0.0600 
     58 H31       -30.2648   24.1445   64.1062 H         1 <0>         0.0600 
     59 H32       -29.4817   26.9534   63.7295 H         1 <0>         0.3000 
     60 H33       -27.6617   26.5899   57.6326 H         1 <0>         0.3000 
     61 H34       -34.9489   27.2048   67.4547 H         1 <0>         0.4180 
     62 H35       -26.1618   28.7904   58.1340 H         1 <0>         0.3619 
@<TRIPOS>BOND
     1    1    7 1    
     2    1   28 1    
     3    1   29 1    
     4    1   30 1    
     5    2   14 1    
     6    2   31 1    
     7    2   32 1    
     8    2   33 1    
     9    3   14 1    
    10    3   34 1    
    11    3   35 1    
    12    3   36 1    
    13    4    5 1    
    14    4    6 1    
    15    4   37 1    
    16    4   38 1    
    17    5   13 1    
    18    5   39 1    
    19    5   40 1    
    20    6   22 1    
    21    6   41 1    
    22    6   42 1    
    23    7    8 1    
    24    7   43 1    
    25    7   44 1    
    26    8    9 1    
    27    8   45 1    
    28    8   46 1    
    29    9   10 1    
    30    9   47 1    
    31    9   48 1    
    32   10   15 1    
    33   10   49 1    
    34   10   50 1    
    35   11   13 1    
    36   11   23 1    
    37   11   51 1    
    38   11   52 1    
    39   12   15 1    
    40   12   17 1    
    41   12   53 1    
    42   12   54 1    
    43   13   22 1    
    44   13   55 1    
    45   14   16 1    
    46   14   56 1    
    47   15   18 1    
    48   15   57 1    
    49   16   19 1    
    50   16   20 1    
    51   16   58 1    
    52   17   21 am   BACKBONE|DICT|INTERRES
    53   17   25 2    
    54   18   20 am   BACKBONE|DICT|INTERRES
    55   18   26 2    
    56   19   22 am   BACKBONE|DICT|INTERRES
    57   19   27 2    
    58   20   59 1    
    59   21   24 1    
    60   21   60 1    
    61   23   61 1    
    62   24   62 1    
@<TRIPOS>SUBSTRUCTURE
     1 <0>         1 GROUP             0       ****    0 ROOT    
@<TRIPOS>MOLECULE
BB2_501_1LRU
62   62    1
SMALL
USER_CHARGES


@<TRIPOS>ATOM
      1 C1        -35.0979   28.9316   60.3431 C.3       1 <0>        -0.1800 
      2 C2        -28.1703   26.0049   66.1357 C.3       1 <0>        -0.1800 
      3 C3        -27.7945   23.8439   64.9049 C.3       1 <0>        -0.1800 
      4 C4        -33.9660   23.2649   65.4607 C.3       1 <0>        -0.1200 
      5 C5        -34.3952   24.2645   66.5169 C.3       1 <0>        -0.1200 
      6 C6        -32.4987   23.6000   65.2102 C.3       1 <0>        -0.0500 
      7 C7        -33.9998   28.3337   61.2270 C.3       1 <0>        -0.1200 
      8 C8        -32.7830   27.8915   60.4040 C.3       1 <0>        -0.1200 
      9 C9        -31.6045   27.4341   61.2686 C.3       1 <0>        -0.1200 
     10 C10       -30.3747   27.0676   60.4155 C.3       1 <0>        -0.1200 
     11 C11       -33.2010   26.2265   67.6013 C.3       1 <0>         0.1450 
     12 C12       -27.8946   26.4173   60.3165 C.3       1 <0>        -0.1200 
     13 C13       -33.5161   25.5034   66.2734 C.3       1 <0>         0.0100 
     14 C14       -28.8517   24.7677   65.5364 C.3       1 <0>        -0.0600 
     15 C15       -29.0913   26.7637   61.2278 C.3       1 <0>        -0.0600 
     16 C16       -30.0112   25.1003   64.5578 C.3       1 <0>         0.1400 
     17 C17       -27.4171   27.5996   59.4791 C.2       1 <0>         0.5000 
     18 C18       -29.3325   25.6221   62.2156 C.2       1 <0>         0.5000 
     19 C19       -31.2462   25.7568   65.2239 C.2       1 <0>         0.5000 
     20 N1        -29.5547   25.9804   63.4877 N.am      1 <0>        -0.5000 
     21 N2        -27.4099   27.4238   58.1555 N.am      1 <0>        -0.2244 
     22 N3        -32.3176   25.0044   65.5724 N.am      1 <0>        -0.1400 
     23 O1        -34.3900   26.6242   68.2529 O.3       1 <0>        -0.6830 
     24 O2        -26.4992   28.2235   57.4531 O.3       1 <0>        -0.4375 
     25 O3        -27.0082   28.6235   60.0197 O.2       1 <0>        -0.5000 
     26 O4        -29.3586   24.4539   61.8228 O.2       1 <0>        -0.5000 
     27 O5        -31.2160   26.9740   65.4163 O.2       1 <0>        -0.5000 
     28 H1        -35.9758   29.2037   60.9297 H         1 <0>         0.0600 
     29 H2        -35.4096   28.2229   59.5797 H         1 <0>         0.0600 
     30 H3        -34.7431   29.8231   59.8331 H         1 <0>         0.0600 
     31 H4        -27.6927   26.6197   65.3743 H         1 <0>         0.0600 
     32 H5        -28.8968   26.6234   66.6529 H         1 <0>         0.0600 
     33 H6        -27.4102   25.7235   66.8614 H         1 <0>         0.0600 
     34 H7        -27.2549   24.3455   64.1024 H         1 <0>         0.0600 
     35 H8        -27.0607   23.5221   65.6450 H         1 <0>         0.0600 
     36 H9        -28.2451   22.9425   64.4869 H         1 <0>         0.0600 
     37 H10       -34.5397   23.4265   64.5452 H         1 <0>         0.0600 
     38 H11       -34.1164   22.2274   65.7646 H         1 <0>         0.0600 
     39 H12       -35.4597   24.4922   66.4669 H         1 <0>         0.0600 
     40 H13       -34.1919   23.8390   67.5004 H         1 <0>         0.0600 
     41 H14       -32.2589   23.3853   64.1679 H         1 <0>         0.0600 
     42 H15       -31.8353   23.0239   65.8500 H         1 <0>         0.0600 
     43 H16       -33.6967   29.0729   61.9695 H         1 <0>         0.0600 
     44 H17       -34.4007   27.4839   61.7822 H         1 <0>         0.0600 
     45 H18       -33.0729   27.0878   59.7264 H         1 <0>         0.0600 
     46 H19       -32.4545   28.7183   59.7800 H         1 <0>         0.0600 
     47 H20       -31.3342   28.2241   61.9699 H         1 <0>         0.0600 
     48 H21       -31.9185   26.5822   61.8730 H         1 <0>         0.0600 
     49 H22       -30.6180   26.2171   59.7761 H         1 <0>         0.0600 
     50 H23       -30.1744   27.8986   59.7374 H         1 <0>         0.0600 
     51 H24       -32.6299   25.5666   68.2546 H         1 <0>         0.0600 
     52 H25       -32.6082   27.1243   67.4482 H         1 <0>         0.0600 
     53 H26       -27.0482   26.0821   60.9200 H         1 <0>         0.0600 
     54 H27       -28.1488   25.5808   59.6617 H         1 <0>         0.0600 
     55 H28       -34.0321   26.1858   65.5949 H         1 <0>         0.0600 
     56 H29       -29.2894   24.2232   66.3734 H         1 <0>         0.0600 
     57 H30       -28.8337   27.6582   61.8024 H         1 <0>         0.0600 
     58 H31       -30.3071   24.1569   64.1072 H         1 <0>         0.0600 
     59 H32       -29.5362   26.9652   63.7154 H         1 <0>         0.3000 
     60 H33       -27.6617   26.5892   57.6337 H         1 <0>         0.3000 
     61 H34       -34.9603   25.8710   68.3141 H         1 <0>         0.4180 
     62 H35       -26.1467   28.7810   58.1347 H         1 <0>         0.3619 
@<TRIPOS>BOND
     1    1    7 1    
     2    1   28 1    
     3    1   29 1    
     4    1   30 1    
     5    2   14 1    
     6    2   31 1    
     7    2   32 1    
     8    2   33 1    
     9    3   14 1    
    10    3   34 1    
    11    3   35 1    
    12    3   36 1    
    13    4    5 1    
    14    4    6 1    
    15    4   37 1    
    16    4   38 1    
    17    5   13 1    
    18    5   39 1    
    19    5   40 1    
    20    6   22 1    
    21    6   41 1    
    22    6   42 1    
    23    7    8 1    
    24    7   43 1    
    25    7   44 1    
    26    8    9 1    
    27    8   45 1    
    28    8   46 1    
    29    9   10 1    
    30    9   47 1    
    31    9   48 1    
    32   10   15 1    
    33   10   49 1    
    34   10   50 1    
    35   11   13 1    
    36   11   23 1    
    37   11   51 1    
    38   11   52 1    
    39   12   15 1    
    40   12   17 1    
    41   12   53 1    
    42   12   54 1    
    43   13   22 1    
    44   13   55 1    
    45   14   16 1    
    46   14   56 1    
    47   15   18 1    
    48   15   57 1    
    49   16   19 1    
    50   16   20 1    
    51   16   58 1    
    52   17   21 am   BACKBONE|DICT|INTERRES
    53   17   25 2    
    54   18   20 am   BACKBONE|DICT|INTERRES
    55   18   26 2    
    56   19   22 am   BACKBONE|DICT|INTERRES
    57   19   27 2    
    58   20   59 1    
    59   21   24 1    
    60   21   60 1    
    61   23   61 1    
    62   24   62 1    
@<TRIPOS>SUBSTRUCTURE
     1 <0>         1 GROUP             0       ****    0 ROOT    
@<TRIPOS>MOLECULE
BB2_501_1LRU
62   62    1
SMALL
USER_CHARGES


@<TRIPOS>ATOM
      1 C1        -35.0685   28.9867   60.2827 C.3       1 <0>        -0.1800 
      2 C2        -28.1631   26.0097   66.1479 C.3       1 <0>        -0.1800 
      3 C3        -27.7583   23.8380   64.9243 C.3       1 <0>        -0.1800 
      4 C4        -33.7965   23.1419   65.7026 C.3       1 <0>        -0.1200 
      5 C5        -34.2245   24.1995   66.7042 C.3       1 <0>        -0.1200 
      6 C6        -32.3878   23.5581   65.2923 C.3       1 <0>        -0.0500 
      7 C7        -33.9650   28.4350   61.1866 C.3       1 <0>        -0.1200 
      8 C8        -32.7735   27.9278   60.3656 C.3       1 <0>        -0.1200 
      9 C9        -31.6085   27.4444   61.2325 C.3       1 <0>        -0.1200 
     10 C10       -30.3727   27.0849   60.3858 C.3       1 <0>        -0.1200 
     11 C11       -33.1811   26.3746   67.5122 C.3       1 <0>         0.1450 
     12 C12       -27.9002   26.4152   60.3091 C.3       1 <0>        -0.1200 
     13 C13       -33.4615   25.4685   66.2916 C.3       1 <0>         0.0100 
     14 C14       -28.8252   24.7638   65.5399 C.3       1 <0>        -0.0600 
     15 C15       -29.1016   26.7642   61.2079 C.3       1 <0>        -0.0600 
     16 C16       -29.9686   25.0746   64.5377 C.3       1 <0>         0.1400 
     17 C17       -27.4178   27.5989   59.4764 C.2       1 <0>         0.5000 
     18 C18       -29.3608   25.6137   62.1836 C.2       1 <0>         0.5000 
     19 C19       -31.2049   25.7420   65.1912 C.2       1 <0>         0.5000 
     20 N1        -29.4942   25.9515   63.4722 N.am      1 <0>        -0.5000 
     21 N2        -27.4115   27.4236   58.1527 N.am      1 <0>        -0.2244 
     22 N3        -32.2487   24.9815   65.5993 N.am      1 <0>        -0.1400 
     23 O1        -34.3815   26.8285   68.1066 O.3       1 <0>        -0.6830 
     24 O2        -26.4948   28.2235   57.4536 O.3       1 <0>        -0.4375 
     25 O3        -27.0086   28.6228   60.0192 O.2       1 <0>        -0.5000 
     26 O4        -29.4814   24.4599   61.7668 O.2       1 <0>        -0.5000 
     27 O5        -31.2002   26.9690   65.3112 O.2       1 <0>        -0.5000 
     28 H1        -35.9253   29.3240   60.8658 H         1 <0>         0.0600 
     29 H2        -35.4096   28.2197   59.5876 H         1 <0>         0.0600 
     30 H3        -34.7054   29.8263   59.6951 H         1 <0>         0.0600 
     31 H4        -27.6768   26.6224   65.3899 H         1 <0>         0.0600 
     32 H5        -28.9043   26.6217   66.6521 H         1 <0>         0.0600 
     33 H6        -27.4111   25.7383   66.8868 H         1 <0>         0.0600 
     34 H7        -27.2132   24.3304   64.1171 H         1 <0>         0.0600 
     35 H8        -27.0297   23.5233   65.6753 H         1 <0>         0.0600 
     36 H9        -28.2091   22.9314   64.5148 H         1 <0>         0.0600 
     37 H10       -34.4588   23.1703   64.8340 H         1 <0>         0.0600 
     38 H11       -33.8246   22.1313   66.1090 H         1 <0>         0.0600 
     39 H12       -35.3051   24.3466   66.7235 H         1 <0>         0.0600 
     40 H13       -33.9179   23.8829   67.7038 H         1 <0>         0.0600 
     41 H14       -32.2515   23.3439   64.2309 H         1 <0>         0.0600 
     42 H15       -31.6243   23.0240   65.8531 H         1 <0>         0.0600 
     43 H16       -33.6361   29.2183   61.8709 H         1 <0>         0.0600 
     44 H17       -34.3626   27.6286   61.8045 H         1 <0>         0.0600 
     45 H18       -33.0962   27.1220   59.7034 H         1 <0>         0.0600 
     46 H19       -32.4196   28.7330   59.7251 H         1 <0>         0.0600 
     47 H20       -31.3402   28.2219   61.9481 H         1 <0>         0.0600 
     48 H21       -31.9372   26.5863   61.8203 H         1 <0>         0.0600 
     49 H22       -30.6136   26.2458   59.7319 H         1 <0>         0.0600 
     50 H23       -30.1617   27.9249   59.7249 H         1 <0>         0.0600 
     51 H24       -32.6052   25.8226   68.2523 H         1 <0>         0.0600 
     52 H25       -32.6097   27.2604   67.2503 H         1 <0>         0.0600 
     53 H26       -27.0600   26.0780   60.9193 H         1 <0>         0.0600 
     54 H27       -28.1524   25.5790   59.6524 H         1 <0>         0.0600 
     55 H28       -34.0479   26.0170   65.5534 H         1 <0>         0.0600 
     56 H29       -29.2689   24.2236   66.3761 H         1 <0>         0.0600 
     57 H30       -28.8445   27.6477   61.7981 H         1 <0>         0.0600 
     58 H31       -30.2594   24.1274   64.0921 H         1 <0>         0.0600 
     59 H32       -29.4106   26.9279   63.7172 H         1 <0>         0.3000 
     60 H33       -27.6663   26.5925   57.6268 H         1 <0>         0.3000 
     61 H34       -34.8839   27.2824   67.4455 H         1 <0>         0.4180 
     62 H35       -26.1439   28.7802   58.1371 H         1 <0>         0.3619 
@<TRIPOS>BOND
     1    1    7 1    
     2    1   28 1    
     3    1   29 1    
     4    1   30 1    
     5    2   14 1    
     6    2   31 1    
     7    2   32 1    
     8    2   33 1    
     9    3   14 1    
    10    3   34 1    
    11    3   35 1    
    12    3   36 1    
    13    4    5 1    
    14    4    6 1    
    15    4   37 1    
    16    4   38 1    
    17    5   13 1    
    18    5   39 1    
    19    5   40 1    
    20    6   22 1    
    21    6   41 1    
    22    6   42 1    
    23    7    8 1    
    24    7   43 1    
    25    7   44 1    
    26    8    9 1    
    27    8   45 1    
    28    8   46 1    
    29    9   10 1    
    30    9   47 1    
    31    9   48 1    
    32   10   15 1    
    33   10   49 1    
    34   10   50 1    
    35   11   13 1    
    36   11   23 1    
    37   11   51 1    
    38   11   52 1    
    39   12   15 1    
    40   12   17 1    
    41   12   53 1    
    42   12   54 1    
    43   13   22 1    
    44   13   55 1    
    45   14   16 1    
    46   14   56 1    
    47   15   18 1    
    48   15   57 1    
    49   16   19 1    
    50   16   20 1    
    51   16   58 1    
    52   17   21 am   BACKBONE|DICT|INTERRES
    53   17   25 2    
    54   18   20 am   BACKBONE|DICT|INTERRES
    55   18   26 2    
    56   19   22 am   BACKBONE|DICT|INTERRES
    57   19   27 2    
    58   20   59 1    
    59   21   24 1    
    60   21   60 1    
    61   23   61 1    
    62   24   62 1    
@<TRIPOS>SUBSTRUCTURE
     1 <0>         1 GROUP             0       ****    0 ROOT    
@<TRIPOS>MOLECULE
BB2_501_1LRU
62   62    1
SMALL
USER_CHARGES


@<TRIPOS>ATOM
      1 C1        -35.0388   29.0149   60.3683 C.3       1 <0>        -0.1800 
      2 C2        -28.1883   26.0088   66.1648 C.3       1 <0>        -0.1800 
      3 C3        -27.7714   23.8445   64.9413 C.3       1 <0>        -0.1800 
      4 C4        -33.8683   23.2019   65.6604 C.3       1 <0>        -0.1200 
      5 C5        -34.2740   24.2492   66.6789 C.3       1 <0>        -0.1200 
      6 C6        -32.4412   23.5821   65.2774 C.3       1 <0>        -0.0500 
      7 C7        -33.9090   28.4805   61.2522 C.3       1 <0>        -0.1200 
      8 C8        -32.7426   27.9400   60.4151 C.3       1 <0>        -0.1200 
      9 C9        -31.5748   27.4449   61.2717 C.3       1 <0>        -0.1200 
     10 C10       -30.3590   27.0540   60.4107 C.3       1 <0>        -0.1200 
     11 C11       -33.1860   26.3848   67.5254 C.3       1 <0>         0.1450 
     12 C12       -27.8800   26.4022   60.3087 C.3       1 <0>        -0.1200 
     13 C13       -33.4786   25.5062   66.2880 C.3       1 <0>         0.0100 
     14 C14       -28.8456   24.7634   65.5523 C.3       1 <0>        -0.0600 
     15 C15       -29.0775   26.7411   61.2207 C.3       1 <0>        -0.0600 
     16 C16       -29.9873   25.0774   64.5485 C.3       1 <0>         0.1400 
     17 C17       -27.4125   27.5928   59.4764 C.2       1 <0>         0.5000 
     18 C18       -29.3230   25.5932   62.2027 C.2       1 <0>         0.5000 
     19 C19       -31.2247   25.7540   65.1910 C.2       1 <0>         0.5000 
     20 N1        -29.5065   25.9490   63.4808 N.am      1 <0>        -0.5000 
     21 N2        -27.4093   27.4225   58.1530 N.am      1 <0>        -0.2244 
     22 N3        -32.2762   25.0022   65.5921 N.am      1 <0>        -0.1400 
     23 O1        -34.3823   26.8415   68.1215 O.3       1 <0>        -0.6830 
     24 O2        -26.4966   28.2239   57.4531 O.3       1 <0>        -0.4375 
     25 O3        -27.0079   28.6207   60.0185 O.2       1 <0>        -0.5000 
     26 O4        -29.3903   24.4299   61.7998 O.2       1 <0>        -0.5000 
     27 O5        -31.2130   26.9806   65.3172 O.2       1 <0>        -0.5000 
     28 H1        -35.8706   29.3867   60.9657 H         1 <0>         0.0600 
     29 H2        -35.4106   28.2223   59.7215 H         1 <0>         0.0600 
     30 H3        -34.6896   29.8226   59.7279 H         1 <0>         0.0600 
     31 H4        -27.6867   26.6218   65.4152 H         1 <0>         0.0600 
     32 H5        -28.9384   26.6232   66.6537 H         1 <0>         0.0600 
     33 H6        -27.4529   25.7362   66.9195 H         1 <0>         0.0600 
     34 H7        -27.2191   24.3439   64.1429 H         1 <0>         0.0600 
     35 H8        -27.0491   23.5294   65.6953 H         1 <0>         0.0600 
     36 H9        -28.2118   22.9389   64.5199 H         1 <0>         0.0600 
     37 H10       -34.5140   23.2790   64.7842 H         1 <0>         0.0600 
     38 H11       -33.9499   22.1844   66.0433 H         1 <0>         0.0600 
     39 H12       -35.3504   24.4209   66.7001 H         1 <0>         0.0600 
     40 H13       -33.9757   23.9124   67.6729 H         1 <0>         0.0600 
     41 H14       -32.2878   23.3658   64.2203 H         1 <0>         0.0600 
     42 H15       -31.7042   23.0248   65.8526 H         1 <0>         0.0600 
     43 H16       -33.5601   29.2765   61.9115 H         1 <0>         0.0600 
     44 H17       -34.2986   27.6906   61.8978 H         1 <0>         0.0600 
     45 H18       -33.0952   27.1317   59.7734 H         1 <0>         0.0600 
     46 H19       -32.3851   28.7285   59.7570 H         1 <0>         0.0600 
     47 H20       -31.2765   28.2249   61.9719 H         1 <0>         0.0600 
     48 H21       -31.9092   26.6021   61.8770 H         1 <0>         0.0600 
     49 H22       -30.6151   26.2045   59.7756 H         1 <0>         0.0600 
     50 H23       -30.1485   27.8797   59.7322 H         1 <0>         0.0600 
     51 H24       -32.6095   25.8150   68.2529 H         1 <0>         0.0600 
     52 H25       -32.6114   27.2705   67.2740 H         1 <0>         0.0600 
     53 H26       -27.0311   26.0647   60.9074 H         1 <0>         0.0600 
     54 H27       -28.1350   25.5702   59.6488 H         1 <0>         0.0600 
     55 H28       -34.0537   26.0790   65.5582 H         1 <0>         0.0600 
     56 H29       -29.2964   24.2228   66.3847 H         1 <0>         0.0600 
     57 H30       -28.8175   27.6283   61.8048 H         1 <0>         0.0600 
     58 H31       -30.2856   24.1319   64.1036 H         1 <0>         0.0600 
     59 H32       -29.4554   26.9299   63.7123 H         1 <0>         0.3000 
     60 H33       -27.6652   26.5889   57.6319 H         1 <0>         0.3000 
     61 H34       -34.8939   27.2779   67.4532 H         1 <0>         0.4180 
     62 H35       -26.1294   28.7664   58.1402 H         1 <0>         0.3619 
@<TRIPOS>BOND
     1    1    7 1    
     2    1   28 1    
     3    1   29 1    
     4    1   30 1    
     5    2   14 1    
     6    2   31 1    
     7    2   32 1    
     8    2   33 1    
     9    3   14 1    
    10    3   34 1    
    11    3   35 1    
    12    3   36 1    
    13    4    5 1    
    14    4    6 1    
    15    4   37 1    
    16    4   38 1    
    17    5   13 1    
    18    5   39 1    
    19    5   40 1    
    20    6   22 1    
    21    6   41 1    
    22    6   42 1    
    23    7    8 1    
    24    7   43 1    
    25    7   44 1    
    26    8    9 1    
    27    8   45 1    
    28    8   46 1    
    29    9   10 1    
    30    9   47 1    
    31    9   48 1    
    32   10   15 1    
    33   10   49 1    
    34   10   50 1    
    35   11   13 1    
    36   11   23 1    
    37   11   51 1    
    38   11   52 1    
    39   12   15 1    
    40   12   17 1    
    41   12   53 1    
    42   12   54 1    
    43   13   22 1    
    44   13   55 1    
    45   14   16 1    
    46   14   56 1    
    47   15   18 1    
    48   15   57 1    
    49   16   19 1    
    50   16   20 1    
    51   16   58 1    
    52   17   21 am   BACKBONE|DICT|INTERRES
    53   17   25 2    
    54   18   20 am   BACKBONE|DICT|INTERRES
    55   18   26 2    
    56   19   22 am   BACKBONE|DICT|INTERRES
    57   19   27 2    
    58   20   59 1    
    59   21   24 1    
    60   21   60 1    
    61   23   61 1    
    62   24   62 1    
@<TRIPOS>SUBSTRUCTURE
     1 <0>         1 GROUP             0       ****    0 ROOT    
@<TRIPOS>MOLECULE
BB2_501_1LRU
62   62    1
SMALL
USER_CHARGES


@<TRIPOS>ATOM
      1 C1        -35.0899   28.9631   60.2818 C.3       1 <0>        -0.1800 
      2 C2        -28.1902   26.0250   66.1442 C.3       1 <0>        -0.1800 
      3 C3        -27.7629   23.8411   64.9690 C.3       1 <0>        -0.1800 
      4 C4        -33.8928   22.7888   65.1909 C.3       1 <0>        -0.1200 
      5 C5        -34.2862   23.5235   66.4590 C.3       1 <0>        -0.1200 
      6 C6        -32.4832   23.2987   64.8994 C.3       1 <0>        -0.0500 
      7 C7        -34.0272   28.3778   61.2200 C.3       1 <0>        -0.1200 
      8 C8        -32.7909   27.9159   60.4425 C.3       1 <0>        -0.1200 
      9 C9        -31.6476   27.4404   61.3431 C.3       1 <0>        -0.1200 
     10 C10       -30.3999   27.0742   60.5191 C.3       1 <0>        -0.1200 
     11 C11       -33.3224   25.5088   67.7462 C.3       1 <0>         0.1450 
     12 C12       -27.9229   26.4294   60.4447 C.3       1 <0>        -0.1200 
     13 C13       -33.5728   24.8786   66.3506 C.3       1 <0>         0.0100 
     14 C14       -28.8353   24.7449   65.6029 C.3       1 <0>        -0.0600 
     15 C15       -29.1327   26.7649   61.3516 C.3       1 <0>        -0.0600 
     16 C16       -30.0425   24.9885   64.6520 C.3       1 <0>         0.1400 
     17 C17       -27.4430   27.6020   59.5864 C.2       1 <0>         0.5000 
     18 C18       -29.3895   25.6065   62.3246 C.2       1 <0>         0.5000 
     19 C19       -31.3275   25.4615   65.3749 C.2       1 <0>         0.5000 
     20 N1        -29.6941   25.9343   63.5899 N.am      1 <0>        -0.5000 
     21 N2        -27.4621   27.4233   58.2614 N.am      1 <0>        -0.2244 
     22 N3        -32.3523   24.5921   65.5724 N.am      1 <0>        -0.1400 
     23 O1        -33.7305   26.8646   67.7585 O.3       1 <0>        -0.6830 
     24 O2        -26.6250   28.2733   57.5176 O.3       1 <0>        -0.4375 
     25 O3        -27.0089   28.6229   60.1144 O.2       1 <0>        -0.5000 
     26 O4        -29.3355   24.4423   61.9244 O.2       1 <0>        -0.5000 
     27 O5        -31.3821   26.6235   65.7718 O.2       1 <0>        -0.5000 
     28 H1        -35.9709   29.2841   60.8412 H         1 <0>         0.0600 
     29 H2        -35.4095   28.2250   59.5492 H         1 <0>         0.0600 
     30 H3        -34.7026   29.8229   59.7437 H         1 <0>         0.0600 
     31 H4        -27.7413   26.6231   65.3521 H         1 <0>         0.0600 
     32 H5        -28.9317   26.6356   66.6520 H         1 <0>         0.0600 
     33 H6        -27.4094   25.7955   66.8685 H         1 <0>         0.0600 
     34 H7        -27.2687   24.3309   64.1285 H         1 <0>         0.0600 
     35 H8        -26.9952   23.5773   65.6967 H         1 <0>         0.0600 
     36 H9        -28.1922   22.9082   64.5998 H         1 <0>         0.0600 
     37 H10       -34.5632   23.0744   64.3786 H         1 <0>         0.0600 
     38 H11       -33.9420   21.7031   65.2909 H         1 <0>         0.0600 
     39 H12       -35.3671   23.6242   66.5690 H         1 <0>         0.0600 
     40 H13       -33.9116   22.9651   67.3202 H         1 <0>         0.0600 
     41 H14       -32.3356   23.3858   63.8210 H         1 <0>         0.0600 
     42 H15       -31.7291   22.6214   65.2923 H         1 <0>         0.0600 
     43 H16       -33.7458   29.1296   61.9575 H         1 <0>         0.0600 
     44 H17       -34.4470   27.5402   61.7764 H         1 <0>         0.0600 
     45 H18       -33.0695   27.1151   59.7556 H         1 <0>         0.0600 
     46 H19       -32.4243   28.7368   59.8283 H         1 <0>         0.0600 
     47 H20       -31.3952   28.2233   62.0581 H         1 <0>         0.0600 
     48 H21       -31.9866   26.5838   61.9275 H         1 <0>         0.0600 
     49 H22       -30.6305   26.2273   59.8707 H         1 <0>         0.0600 
     50 H23       -30.1840   27.9096   59.8513 H         1 <0>         0.0600 
     51 H24       -33.9040   24.9974   68.5126 H         1 <0>         0.0600 
     52 H25       -32.2787   25.4207   68.0519 H         1 <0>         0.0600 
     53 H26       -27.0778   26.1094   61.0572 H         1 <0>         0.0600 
     54 H27       -28.1605   25.5853   59.7961 H         1 <0>         0.0600 
     55 H28       -34.1940   25.5402   65.7440 H         1 <0>         0.0600 
     56 H29       -29.2204   24.2212   66.4752 H         1 <0>         0.0600 
     57 H30       -28.8839   27.6492   61.9444 H         1 <0>         0.0600 
     58 H31       -30.2403   24.0307   64.1840 H         1 <0>         0.0600 
     59 H32       -29.7428   26.9139   63.8360 H         1 <0>         0.3000 
     60 H33       -27.7444   26.6041   57.7287 H         1 <0>         0.3000 
     61 H34       -33.1896   27.3313   67.1317 H         1 <0>         0.4180 
     62 H35       -26.2803   28.8526   58.1826 H         1 <0>         0.3619 
@<TRIPOS>BOND
     1    1    7 1    
     2    1   28 1    
     3    1   29 1    
     4    1   30 1    
     5    2   14 1    
     6    2   31 1    
     7    2   32 1    
     8    2   33 1    
     9    3   14 1    
    10    3   34 1    
    11    3   35 1    
    12    3   36 1    
    13    4    5 1    
    14    4    6 1    
    15    4   37 1    
    16    4   38 1    
    17    5   13 1    
    18    5   39 1    
    19    5   40 1    
    20    6   22 1    
    21    6   41 1    
    22    6   42 1    
    23    7    8 1    
    24    7   43 1    
    25    7   44 1    
    26    8    9 1    
    27    8   45 1    
    28    8   46 1    
    29    9   10 1    
    30    9   47 1    
    31    9   48 1    
    32   10   15 1    
    33   10   49 1    
    34   10   50 1    
    35   11   13 1    
    36   11   23 1    
    37   11   51 1    
    38   11   52 1    
    39   12   15 1    
    40   12   17 1    
    41   12   53 1    
    42   12   54 1    
    43   13   22 1    
    44   13   55 1    
    45   14   16 1    
    46   14   56 1    
    47   15   18 1    
    48   15   57 1    
    49   16   19 1    
    50   16   20 1    
    51   16   58 1    
    52   17   21 am   BACKBONE|DICT|INTERRES
    53   17   25 2    
    54   18   20 am   BACKBONE|DICT|INTERRES
    55   18   26 2    
    56   19   22 am   BACKBONE|DICT|INTERRES
    57   19   27 2    
    58   20   59 1    
    59   21   24 1    
    60   21   60 1    
    61   23   61 1    
    62   24   62 1    
@<TRIPOS>SUBSTRUCTURE
     1 <0>         1 GROUP             0       ****    0 ROOT    
@<TRIPOS>MOLECULE
BB2_501_1LRU
62   62    1
SMALL
USER_CHARGES


@<TRIPOS>ATOM
      1 C1        -35.0442   29.0179   60.3342 C.3       1 <0>        -0.1800 
      2 C2        -28.1596   26.0097   66.1492 C.3       1 <0>        -0.1800 
      3 C3        -27.7728   23.8486   64.9098 C.3       1 <0>        -0.1800 
      4 C4        -33.9344   23.2509   65.4808 C.3       1 <0>        -0.1200 
      5 C5        -34.3624   24.2480   66.5370 C.3       1 <0>        -0.1200 
      6 C6        -32.4727   23.5950   65.2210 C.3       1 <0>        -0.0500 
      7 C7        -33.9253   28.4900   61.2374 C.3       1 <0>        -0.1200 
      8 C8        -32.7568   27.9383   60.4150 C.3       1 <0>        -0.1200 
      9 C9        -31.5883   27.4542   61.2755 C.3       1 <0>        -0.1200 
     10 C10       -30.3682   27.0656   60.4195 C.3       1 <0>        -0.1200 
     11 C11       -33.1900   26.2377   67.5958 C.3       1 <0>         0.1450 
     12 C12       -27.8953   26.4091   60.3109 C.3       1 <0>        -0.1200 
     13 C13       -33.5005   25.4937   66.2794 C.3       1 <0>         0.0100 
     14 C14       -28.8317   24.7699   65.5450 C.3       1 <0>        -0.0600 
     15 C15       -29.0856   26.7583   61.2273 C.3       1 <0>        -0.0600 
     16 C16       -29.9928   25.0992   64.5646 C.3       1 <0>         0.1400 
     17 C17       -27.4190   27.5947   59.4766 C.2       1 <0>         0.5000 
     18 C18       -29.3294   25.6165   62.2182 C.2       1 <0>         0.5000 
     19 C19       -31.2286   25.7567   65.2302 C.2       1 <0>         0.5000 
     20 N1        -29.5413   25.9793   63.4891 N.am      1 <0>        -0.5000 
     21 N2        -27.4102   27.4235   58.1512 N.am      1 <0>        -0.2244 
     22 N3        -32.2971   25.0005   65.5841 N.am      1 <0>        -0.1400 
     23 O1        -34.3805   26.6250   68.2528 O.3       1 <0>        -0.6830 
     24 O2        -26.4962   28.2232   57.4527 O.3       1 <0>        -0.4375 
     25 O3        -27.0090   28.6199   60.0178 O.2       1 <0>        -0.5000 
     26 O4        -29.3529   24.4492   61.8295 O.2       1 <0>        -0.5000 
     27 O5        -31.2001   26.9751   65.4179 O.2       1 <0>        -0.5000 
     28 H1        -35.8810   29.3907   60.9232 H         1 <0>         0.0600 
     29 H2        -35.4097   28.2244   59.6847 H         1 <0>         0.0600 
     30 H3        -34.6829   29.8229   59.6989 H         1 <0>         0.0600 
     31 H4        -27.6705   26.6213   65.3901 H         1 <0>         0.0600 
     32 H5        -28.8960   26.6229   66.6529 H         1 <0>         0.0600 
     33 H6        -27.4100   25.7293   66.8862 H         1 <0>         0.0600 
     34 H7        -27.2277   24.3537   64.1133 H         1 <0>         0.0600 
     35 H8        -27.0458   23.5229   65.6540 H         1 <0>         0.0600 
     36 H9        -28.2236   22.9495   64.4847 H         1 <0>         0.0600 
     37 H10       -34.5158   23.4064   64.5694 H         1 <0>         0.0600 
     38 H11       -34.0762   22.2142   65.7890 H         1 <0>         0.0600 
     39 H12       -35.4315   24.4640   66.4995 H         1 <0>         0.0600 
     40 H13       -34.1427   23.8315   67.5192 H         1 <0>         0.0600 
     41 H14       -32.2401   23.3833   64.1770 H         1 <0>         0.0600 
     42 H15       -31.8008   23.0235   65.8528 H         1 <0>         0.0600 
     43 H16       -33.5746   29.2939   61.8866 H         1 <0>         0.0600 
     44 H17       -34.3204   27.7126   61.8912 H         1 <0>         0.0600 
     45 H18       -33.1045   27.1214   59.7803 H         1 <0>         0.0600 
     46 H19       -32.3960   28.7172   59.7447 H         1 <0>         0.0600 
     47 H20       -31.2993   28.2374   61.9763 H         1 <0>         0.0600 
     48 H21       -31.9207   26.6093   61.8817 H         1 <0>         0.0600 
     49 H22       -30.6247   26.2156   59.7834 H         1 <0>         0.0600 
     50 H23       -30.1625   27.8926   59.7400 H         1 <0>         0.0600 
     51 H24       -32.6073   25.5926   68.2532 H         1 <0>         0.0600 
     52 H25       -32.6099   27.1429   67.4328 H         1 <0>         0.0600 
     53 H26       -27.0496   26.0684   60.9089 H         1 <0>         0.0600 
     54 H27       -28.1567   25.5774   59.6531 H         1 <0>         0.0600 
     55 H28       -34.0254   26.1640   65.5937 H         1 <0>         0.0600 
     56 H29       -29.2718   24.2232   66.3787 H         1 <0>         0.0600 
     57 H30       -28.8249   27.6492   61.8042 H         1 <0>         0.0600 
     58 H31       -30.2861   24.1553   64.1164 H         1 <0>         0.0600 
     59 H32       -29.5244   26.9646   63.7153 H         1 <0>         0.3000 
     60 H33       -27.6571   26.5896   57.6265 H         1 <0>         0.3000 
     61 H34       -34.9314   25.8612   68.3432 H         1 <0>         0.4180 
     62 H35       -26.1387   28.7740   58.1369 H         1 <0>         0.3619 
@<TRIPOS>BOND
     1    1    7 1    
     2    1   28 1    
     3    1   29 1    
     4    1   30 1    
     5    2   14 1    
     6    2   31 1    
     7    2   32 1    
     8    2   33 1    
     9    3   14 1    
    10    3   34 1    
    11    3   35 1    
    12    3   36 1    
    13    4    5 1    
    14    4    6 1    
    15    4   37 1    
    16    4   38 1    
    17    5   13 1    
    18    5   39 1    
    19    5   40 1    
    20    6   22 1    
    21    6   41 1    
    22    6   42 1    
    23    7    8 1    
    24    7   43 1    
    25    7   44 1    
    26    8    9 1    
    27    8   45 1    
    28    8   46 1    
    29    9   10 1    
    30    9   47 1    
    31    9   48 1    
    32   10   15 1    
    33   10   49 1    
    34   10   50 1    
    35   11   13 1    
    36   11   23 1    
    37   11   51 1    
    38   11   52 1    
    39   12   15 1    
    40   12   17 1    
    41   12   53 1    
    42   12   54 1    
    43   13   22 1    
    44   13   55 1    
    45   14   16 1    
    46   14   56 1    
    47   15   18 1    
    48   15   57 1    
    49   16   19 1    
    50   16   20 1    
    51   16   58 1    
    52   17   21 am   BACKBONE|DICT|INTERRES
    53   17   25 2    
    54   18   20 am   BACKBONE|DICT|INTERRES
    55   18   26 2    
    56   19   22 am   BACKBONE|DICT|INTERRES
    57   19   27 2    
    58   20   59 1    
    59   21   24 1    
    60   21   60 1    
    61   23   61 1    
    62   24   62 1    
@<TRIPOS>SUBSTRUCTURE
     1 <0>         1 GROUP             0       ****    0 ROOT    
@<TRIPOS>MOLECULE
BB2_501_1LRU
62   62    1
SMALL
USER_CHARGES


@<TRIPOS>ATOM
      1 C1        -35.0508   28.9979   60.2908 C.3       1 <0>        -0.1800 
      2 C2        -28.1690   26.0114   66.1470 C.3       1 <0>        -0.1800 
      3 C3        -27.7624   23.8432   64.9262 C.3       1 <0>        -0.1800 
      4 C4        -33.7925   23.1182   65.7111 C.3       1 <0>        -0.1200 
      5 C5        -34.2224   24.1746   66.7126 C.3       1 <0>        -0.1200 
      6 C6        -32.3889   23.5474   65.2964 C.3       1 <0>        -0.0500 
      7 C7        -33.9426   28.4521   61.1972 C.3       1 <0>        -0.1200 
      8 C8        -32.7619   27.9138   60.3804 C.3       1 <0>        -0.1200 
      9 C9        -31.5917   27.4384   61.2487 C.3       1 <0>        -0.1200 
     10 C10       -30.3674   27.0523   60.3987 C.3       1 <0>        -0.1200 
     11 C11       -33.1995   26.3604   67.5143 C.3       1 <0>         0.1450 
     12 C12       -27.8846   26.4099   60.3110 C.3       1 <0>        -0.1200 
     13 C13       -33.4735   25.4490   66.2962 C.3       1 <0>         0.0100 
     14 C14       -28.8317   24.7643   65.5426 C.3       1 <0>        -0.0600 
     15 C15       -29.0885   26.7480   61.2150 C.3       1 <0>        -0.0600 
     16 C16       -29.9798   25.0756   64.5446 C.3       1 <0>         0.1400 
     17 C17       -27.4159   27.5972   59.4779 C.2       1 <0>         0.5000 
     18 C18       -29.3327   25.5995   62.1975 C.2       1 <0>         0.5000 
     19 C19       -31.2203   25.7379   65.1930 C.2       1 <0>         0.5000 
     20 N1        -29.5129   25.9509   63.4755 N.am      1 <0>        -0.5000 
     21 N2        -27.4103   27.4224   58.1551 N.am      1 <0>        -0.2244 
     22 N3        -32.2599   24.9733   65.6026 N.am      1 <0>        -0.1400 
     23 O1        -34.4044   26.7897   68.1165 O.3       1 <0>        -0.6830 
     24 O2        -26.4989   28.2234   57.4530 O.3       1 <0>        -0.4375 
     25 O3        -27.0087   28.6230   60.0201 O.2       1 <0>        -0.5000 
     26 O4        -29.3924   24.4368   61.7925 O.2       1 <0>        -0.5000 
     27 O5        -31.2250   26.9648   65.3125 O.2       1 <0>        -0.5000 
     28 H1        -35.8986   29.3584   60.8762 H         1 <0>         0.0600 
     29 H2        -35.4082   28.2238   59.6168 H         1 <0>         0.0600 
     30 H3        -34.6845   29.8233   59.6820 H         1 <0>         0.0600 
     31 H4        -27.6788   26.6225   65.3895 H         1 <0>         0.0600 
     32 H5        -28.9093   26.6234   66.6524 H         1 <0>         0.0600 
     33 H6        -27.4173   25.7380   66.8886 H         1 <0>         0.0600 
     34 H7        -27.2173   24.3424   64.1251 H         1 <0>         0.0600 
     35 H8        -27.0349   23.5285   65.6754 H         1 <0>         0.0600 
     36 H9        -28.2092   22.9406   64.5098 H         1 <0>         0.0600 
     37 H10       -34.4541   23.1416   64.8454 H         1 <0>         0.0600 
     38 H11       -33.8148   22.1091   66.1198 H         1 <0>         0.0600 
     39 H12       -35.3052   24.3132   66.7422 H         1 <0>         0.0600 
     40 H13       -33.9059   23.8613   67.7109 H         1 <0>         0.0600 
     41 H14       -32.2514   23.3340   64.2360 H         1 <0>         0.0600 
     42 H15       -31.6155   23.0235   65.8535 H         1 <0>         0.0600 
     43 H16       -33.6007   29.2434   61.8658 H         1 <0>         0.0600 
     44 H17       -34.3454   27.6618   61.8326 H         1 <0>         0.0600 
     45 H18       -33.0987   27.0939   59.7438 H         1 <0>         0.0600 
     46 H19       -32.4089   28.6987   59.7146 H         1 <0>         0.0600 
     47 H20       -31.3094   28.2248   61.9481 H         1 <0>         0.0600 
     48 H21       -31.9219   26.5963   61.8586 H         1 <0>         0.0600 
     49 H22       -30.6180   26.1987   59.7661 H         1 <0>         0.0600 
     50 H23       -30.1614   27.8761   59.7167 H         1 <0>         0.0600 
     51 H24       -32.6079   25.8204   68.2520 H         1 <0>         0.0600 
     52 H25       -32.6511   27.2599   67.2436 H         1 <0>         0.0600 
     53 H26       -27.0377   26.0841   60.9206 H         1 <0>         0.0600 
     54 H27       -28.1292   25.5703   59.6568 H         1 <0>         0.0600 
     55 H28       -34.0668   25.9886   65.5557 H         1 <0>         0.0600 
     56 H29       -29.2749   24.2231   66.3795 H         1 <0>         0.0600 
     57 H30       -28.8374   27.6373   61.7988 H         1 <0>         0.0600 
     58 H31       -30.2676   24.1289   64.0979 H         1 <0>         0.0600 
     59 H32       -29.4746   26.9348   63.7083 H         1 <0>         0.3000 
     60 H33       -27.6578   26.5877   57.6351 H         1 <0>         0.3000 
     61 H34       -34.9339   27.2092   67.4522 H         1 <0>         0.4180 
     62 H35       -26.1538   28.7846   58.1335 H         1 <0>         0.3619 
@<TRIPOS>BOND
     1    1    7 1    
     2    1   28 1    
     3    1   29 1    
     4    1   30 1    
     5    2   14 1    
     6    2   31 1    
     7    2   32 1    
     8    2   33 1    
     9    3   14 1    
    10    3   34 1    
    11    3   35 1    
    12    3   36 1    
    13    4    5 1    
    14    4    6 1    
    15    4   37 1    
    16    4   38 1    
    17    5   13 1    
    18    5   39 1    
    19    5   40 1    
    20    6   22 1    
    21    6   41 1    
    22    6   42 1    
    23    7    8 1    
    24    7   43 1    
    25    7   44 1    
    26    8    9 1    
    27    8   45 1    
    28    8   46 1    
    29    9   10 1    
    30    9   47 1    
    31    9   48 1    
    32   10   15 1    
    33   10   49 1    
    34   10   50 1    
    35   11   13 1    
    36   11   23 1    
    37   11   51 1    
    38   11   52 1    
    39   12   15 1    
    40   12   17 1    
    41   12   53 1    
    42   12   54 1    
    43   13   22 1    
    44   13   55 1    
    45   14   16 1    
    46   14   56 1    
    47   15   18 1    
    48   15   57 1    
    49   16   19 1    
    50   16   20 1    
    51   16   58 1    
    52   17   21 am   BACKBONE|DICT|INTERRES
    53   17   25 2    
    54   18   20 am   BACKBONE|DICT|INTERRES
    55   18   26 2    
    56   19   22 am   BACKBONE|DICT|INTERRES
    57   19   27 2    
    58   20   59 1    
    59   21   24 1    
    60   21   60 1    
    61   23   61 1    
    62   24   62 1    
@<TRIPOS>SUBSTRUCTURE
     1 <0>         1 GROUP             0       ****    0 ROOT    
@<TRIPOS>MOLECULE
BB2_501_1LRU
62   62    1
SMALL
USER_CHARGES


@<TRIPOS>ATOM
      1 C1        -35.0661   28.9708   60.3494 C.3       1 <0>        -0.1800 
      2 C2        -28.1795   26.0075   66.1581 C.3       1 <0>        -0.1800 
      3 C3        -27.7732   23.8437   64.9328 C.3       1 <0>        -0.1800 
      4 C4        -33.8004   23.1208   65.7300 C.3       1 <0>        -0.1200 
      5 C5        -34.2248   24.1773   66.7326 C.3       1 <0>        -0.1200 
      6 C6        -32.4032   23.5503   65.3017 C.3       1 <0>        -0.0500 
      7 C7        -33.9468   28.4104   61.2292 C.3       1 <0>        -0.1200 
      8 C8        -32.7576   27.9111   60.3968 C.3       1 <0>        -0.1200 
      9 C9        -31.5826   27.4357   61.2587 C.3       1 <0>        -0.1200 
     10 C10       -30.3696   27.0299   60.4010 C.3       1 <0>        -0.1200 
     11 C11       -33.2029   26.3686   67.5173 C.3       1 <0>         0.1450 
     12 C12       -27.8856   26.4055   60.3047 C.3       1 <0>        -0.1200 
     13 C13       -33.4828   25.4534   66.3038 C.3       1 <0>         0.0100 
     14 C14       -28.8440   24.7656   65.5477 C.3       1 <0>        -0.0600 
     15 C15       -29.0835   26.7442   61.2149 C.3       1 <0>        -0.0600 
     16 C16       -29.9904   25.0865   64.5483 C.3       1 <0>         0.1400 
     17 C17       -27.4145   27.5951   59.4731 C.2       1 <0>         0.5000 
     18 C18       -29.3132   25.6032   62.2079 C.2       1 <0>         0.5000 
     19 C19       -31.2336   25.7445   65.1961 C.2       1 <0>         0.5000 
     20 N1        -29.5220   25.9650   63.4792 N.am      1 <0>        -0.5000 
     21 N2        -27.4093   27.4230   58.1491 N.am      1 <0>        -0.2244 
     22 N3        -32.2722   24.9763   65.6057 N.am      1 <0>        -0.1400 
     23 O1        -34.4073   26.7951   68.1205 O.3       1 <0>        -0.6830 
     24 O2        -26.4962   28.2239   57.4533 O.3       1 <0>        -0.4375 
     25 O3        -27.0082   28.6214   60.0168 O.2       1 <0>        -0.5000 
     26 O4        -29.3412   24.4339   61.8183 O.2       1 <0>        -0.5000 
     27 O5        -31.2397   26.9707   65.3121 O.2       1 <0>        -0.5000 
     28 H1        -35.9168   29.2925   60.9499 H         1 <0>         0.0600 
     29 H2        -35.4088   28.2156   59.6463 H         1 <0>         0.0600 
     30 H3        -34.7188   29.8234   59.7714 H         1 <0>         0.0600 
     31 H4        -27.6809   26.6170   65.4054 H         1 <0>         0.0600 
     32 H5        -28.9247   26.6228   66.6515 H         1 <0>         0.0600 
     33 H6        -27.4361   25.7315   66.9052 H         1 <0>         0.0600 
     34 H7        -27.2318   24.3379   64.1273 H         1 <0>         0.0600 
     35 H8        -27.0424   23.5380   65.6842 H         1 <0>         0.0600 
     36 H9        -28.2141   22.9343   64.5258 H         1 <0>         0.0600 
     37 H10       -34.4706   23.1449   64.8685 H         1 <0>         0.0600 
     38 H11       -33.8181   22.1121   66.1401 H         1 <0>         0.0600 
     39 H12       -35.3076   24.3125   66.7672 H         1 <0>         0.0600 
     40 H13       -33.9010   23.8688   67.7301 H         1 <0>         0.0600 
     41 H14       -32.2720   23.3367   64.2405 H         1 <0>         0.0600 
     42 H15       -31.6278   23.0250   65.8541 H         1 <0>         0.0600 
     43 H16       -33.6141   29.1834   61.9235 H         1 <0>         0.0600 
     44 H17       -34.3374   27.5944   61.8393 H         1 <0>         0.0600 
     45 H18       -33.0832   27.1009   59.7423 H         1 <0>         0.0600 
     46 H19       -32.4152   28.7139   59.7475 H         1 <0>         0.0600 
     47 H20       -31.2850   28.2266   61.9447 H         1 <0>         0.0600 
     48 H21       -31.9113   26.6018   61.8789 H         1 <0>         0.0600 
     49 H22       -30.6261   26.1616   59.7898 H         1 <0>         0.0600 
     50 H23       -30.1692   27.8369   59.6960 H         1 <0>         0.0600 
     51 H24       -32.6108   25.8234   68.2533 H         1 <0>         0.0600 
     52 H25       -32.6538   27.2669   67.2485 H         1 <0>         0.0600 
     53 H26       -27.0360   26.0746   60.9058 H         1 <0>         0.0600 
     54 H27       -28.1369   25.5699   59.6480 H         1 <0>         0.0600 
     55 H28       -34.0844   25.9887   65.5672 H         1 <0>         0.0600 
     56 H29       -29.2907   24.2234   66.3789 H         1 <0>         0.0600 
     57 H30       -28.8327   27.6400   61.7870 H         1 <0>         0.0600 
     58 H31       -30.2806   24.1407   64.0966 H         1 <0>         0.0600 
     59 H32       -29.5109   26.9491   63.7049 H         1 <0>         0.3000 
     60 H33       -27.6551   26.5868   57.6299 H         1 <0>         0.3000 
     61 H34       -34.9352   27.2096   67.4537 H         1 <0>         0.4180 
     62 H35       -26.1389   28.7738   58.1374 H         1 <0>         0.3619 
@<TRIPOS>BOND
     1    1    7 1    
     2    1   28 1    
     3    1   29 1    
     4    1   30 1    
     5    2   14 1    
     6    2   31 1    
     7    2   32 1    
     8    2   33 1    
     9    3   14 1    
    10    3   34 1    
    11    3   35 1    
    12    3   36 1    
    13    4    5 1    
    14    4    6 1    
    15    4   37 1    
    16    4   38 1    
    17    5   13 1    
    18    5   39 1    
    19    5   40 1    
    20    6   22 1    
    21    6   41 1    
    22    6   42 1    
    23    7    8 1    
    24    7   43 1    
    25    7   44 1    
    26    8    9 1    
    27    8   45 1    
    28    8   46 1    
    29    9   10 1    
    30    9   47 1    
    31    9   48 1    
    32   10   15 1    
    33   10   49 1    
    34   10   50 1    
    35   11   13 1    
    36   11   23 1    
    37   11   51 1    
    38   11   52 1    
    39   12   15 1    
    40   12   17 1    
    41   12   53 1    
    42   12   54 1    
    43   13   22 1    
    44   13   55 1    
    45   14   16 1    
    46   14   56 1    
    47   15   18 1    
    48   15   57 1    
    49   16   19 1    
    50   16   20 1    
    51   16   58 1    
    52   17   21 am   BACKBONE|DICT|INTERRES
    53   17   25 2    
    54   18   20 am   BACKBONE|DICT|INTERRES
    55   18   26 2    
    56   19   22 am   BACKBONE|DICT|INTERRES
    57   19   27 2    
    58   20   59 1    
    59   21   24 1    
    60   21   60 1    
    61   23   61 1    
    62   24   62 1    
@<TRIPOS>SUBSTRUCTURE
     1 <0>         1 GROUP             0       ****    0 ROOT    
@<TRIPOS>MOLECULE
BB2_501_1LRU
62   62    1
SMALL
USER_CHARGES


@<TRIPOS>ATOM
      1 C1        -35.1600   28.8701   60.2923 C.3       1 <0>        -0.1800 
      2 C2        -28.1921   26.0057   66.1053 C.3       1 <0>        -0.1800 
      3 C3        -27.8309   23.8367   64.8709 C.3       1 <0>        -0.1800 
      4 C4        -33.9488   23.2074   65.5296 C.3       1 <0>        -0.1200 
      5 C5        -34.3790   24.2209   66.5730 C.3       1 <0>        -0.1200 
      6 C6        -32.5013   23.5782   65.2303 C.3       1 <0>        -0.0500 
      7 C7        -34.0510   28.2722   61.1662 C.3       1 <0>        -0.1200 
      8 C8        -32.8083   27.8909   60.3499 C.3       1 <0>        -0.1200 
      9 C9        -31.6374   27.4260   61.2202 C.3       1 <0>        -0.1200 
     10 C10       -30.4031   27.0436   60.3775 C.3       1 <0>        -0.1200 
     11 C11       -33.2043   26.2278   67.5974 C.3       1 <0>         0.1450 
     12 C12       -27.9113   26.4171   60.3051 C.3       1 <0>        -0.1200 
     13 C13       -33.5331   25.4741   66.2913 C.3       1 <0>         0.0100 
     14 C14       -28.8812   24.7661   65.5101 C.3       1 <0>        -0.0600 
     15 C15       -29.1195   26.7622   61.1995 C.3       1 <0>        -0.0600 
     16 C16       -30.0477   25.1014   64.5342 C.3       1 <0>         0.1400 
     17 C17       -27.4208   27.5987   59.4718 C.2       1 <0>         0.5000 
     18 C18       -29.3523   25.6237   62.1974 C.2       1 <0>         0.5000 
     19 C19       -31.2825   25.7539   65.2033 C.2       1 <0>         0.5000 
     20 N1        -29.6000   25.9875   63.4633 N.am      1 <0>        -0.5000 
     21 N2        -27.4085   27.4242   58.1497 N.am      1 <0>        -0.2244 
     22 N3        -32.3364   24.9881   65.5797 N.am      1 <0>        -0.1400 
     23 O1        -34.3917   26.6167   68.2532 O.3       1 <0>        -0.6830 
     24 O2        -26.4836   28.2234   57.4537 O.3       1 <0>        -0.4375 
     25 O3        -27.0066   28.6231   60.0149 O.2       1 <0>        -0.5000 
     26 O4        -29.3413   24.4513   61.8195 O.2       1 <0>        -0.5000 
     27 O5        -31.2670   26.9748   65.3760 O.2       1 <0>        -0.5000 
     28 H1        -36.0665   29.0333   60.8774 H         1 <0>         0.0600 
     29 H2        -35.4109   28.2133   59.4596 H         1 <0>         0.0600 
     30 H3        -34.8494   29.8227   59.8644 H         1 <0>         0.0600 
     31 H4        -27.7294   26.6190   65.3343 H         1 <0>         0.0600 
     32 H5        -28.9073   26.6225   66.6369 H         1 <0>         0.0600 
     33 H6        -27.4122   25.7203   66.8111 H         1 <0>         0.0600 
     34 H7        -27.2815   24.3396   64.0764 H         1 <0>         0.0600 
     35 H8        -27.1079   23.4968   65.6129 H         1 <0>         0.0600 
     36 H9        -28.2953   22.9474   64.4434 H         1 <0>         0.0600 
     37 H10       -34.5567   23.3279   64.6301 H         1 <0>         0.0600 
     38 H11       -34.0577   22.1747   65.8675 H         1 <0>         0.0600 
     39 H12       -35.4502   24.4174   66.5469 H         1 <0>         0.0600 
     40 H13       -34.1426   23.8189   67.5588 H         1 <0>         0.0600 
     41 H14       -32.2867   23.3623   64.1829 H         1 <0>         0.0600 
     42 H15       -31.8043   23.0240   65.8520 H         1 <0>         0.0600 
     43 H16       -33.7799   28.9886   61.9429 H         1 <0>         0.0600 
     44 H17       -34.4280   27.3884   61.6827 H         1 <0>         0.0600 
     45 H18       -33.0686   27.1106   59.6350 H         1 <0>         0.0600 
     46 H19       -32.4836   28.7487   59.7677 H         1 <0>         0.0600 
     47 H20       -31.3732   28.2229   61.9159 H         1 <0>         0.0600 
     48 H21       -31.9590   26.5785   61.8258 H         1 <0>         0.0600 
     49 H22       -30.6388   26.1751   59.7595 H         1 <0>         0.0600 
     50 H23       -30.2022   27.8611   59.6854 H         1 <0>         0.0600 
     51 H24       -32.6203   25.5850   68.2533 H         1 <0>         0.0600 
     52 H25       -32.6229   27.1306   67.4212 H         1 <0>         0.0600 
     53 H26       -27.0721   26.0829   60.9182 H         1 <0>         0.0600 
     54 H27       -28.1605   25.5808   59.6488 H         1 <0>         0.0600 
     55 H28       -34.0786   26.1281   65.6100 H         1 <0>         0.0600 
     56 H29       -29.3186   24.2234   66.3487 H         1 <0>         0.0600 
     57 H30       -28.8767   27.6617   61.7702 H         1 <0>         0.0600 
     58 H31       -30.3435   24.1591   64.0801 H         1 <0>         0.0600 
     59 H32       -29.6131   26.9751   63.6828 H         1 <0>         0.3000 
     60 H33       -27.6591   26.5899   57.6276 H         1 <0>         0.3000 
     61 H34       -34.9410   25.8524   68.3551 H         1 <0>         0.4180 
     62 H35       -26.1194   28.7629   58.1418 H         1 <0>         0.3619 
@<TRIPOS>BOND
     1    1    7 1    
     2    1   28 1    
     3    1   29 1    
     4    1   30 1    
     5    2   14 1    
     6    2   31 1    
     7    2   32 1    
     8    2   33 1    
     9    3   14 1    
    10    3   34 1    
    11    3   35 1    
    12    3   36 1    
    13    4    5 1    
    14    4    6 1    
    15    4   37 1    
    16    4   38 1    
    17    5   13 1    
    18    5   39 1    
    19    5   40 1    
    20    6   22 1    
    21    6   41 1    
    22    6   42 1    
    23    7    8 1    
    24    7   43 1    
    25    7   44 1    
    26    8    9 1    
    27    8   45 1    
    28    8   46 1    
    29    9   10 1    
    30    9   47 1    
    31    9   48 1    
    32   10   15 1    
    33   10   49 1    
    34   10   50 1    
    35   11   13 1    
    36   11   23 1    
    37   11   51 1    
    38   11   52 1    
    39   12   15 1    
    40   12   17 1    
    41   12   53 1    
    42   12   54 1    
    43   13   22 1    
    44   13   55 1    
    45   14   16 1    
    46   14   56 1    
    47   15   18 1    
    48   15   57 1    
    49   16   19 1    
    50   16   20 1    
    51   16   58 1    
    52   17   21 am   BACKBONE|DICT|INTERRES
    53   17   25 2    
    54   18   20 am   BACKBONE|DICT|INTERRES
    55   18   26 2    
    56   19   22 am   BACKBONE|DICT|INTERRES
    57   19   27 2    
    58   20   59 1    
    59   21   24 1    
    60   21   60 1    
    61   23   61 1    
    62   24   62 1    
@<TRIPOS>SUBSTRUCTURE
     1 <0>         1 GROUP             0       ****    0 ROOT    
@<TRIPOS>MOLECULE
BB2_501_1LRU
62   62    1
SMALL
USER_CHARGES


@<TRIPOS>ATOM
      1 C1        -35.0700   29.0095   60.1161 C.3       1 <0>        -0.1800 
      2 C2        -28.1803   26.0184   66.1500 C.3       1 <0>        -0.1800 
      3 C3        -27.7311   23.8226   65.0130 C.3       1 <0>        -0.1800 
      4 C4        -33.8252   23.1513   65.6850 C.3       1 <0>        -0.1200 
      5 C5        -34.2384   24.2151   66.6845 C.3       1 <0>        -0.1200 
      6 C6        -32.4109   23.5485   65.2805 C.3       1 <0>        -0.0500 
      7 C7        -33.9843   28.0212   60.5540 C.3       1 <0>        -0.1200 
      8 C8        -32.9635   28.6775   61.4991 C.3       1 <0>        -0.1200 
      9 C9        -31.7990   27.7667   61.8995 C.3       1 <0>        -0.1200 
     10 C10       -30.7707   27.5047   60.7714 C.3       1 <0>        -0.1200 
     11 C11       -33.1763   26.3750   67.4931 C.3       1 <0>         0.1450 
     12 C12       -28.5513   26.3848   60.0687 C.3       1 <0>        -0.1200 
     13 C13       -33.4572   25.4726   66.2709 C.3       1 <0>         0.0100 
     14 C14       -28.8233   24.7458   65.5827 C.3       1 <0>        -0.0600 
     15 C15       -29.4485   26.8428   61.2458 C.3       1 <0>        -0.0600 
     16 C16       -29.9567   24.9862   64.5466 C.3       1 <0>         0.1400 
     17 C17       -27.6142   27.4545   59.5084 C.2       1 <0>         0.5000 
     18 C18       -29.7279   25.6539   62.1706 C.2       1 <0>         0.5000 
     19 C19       -31.1806   25.6964   65.1899 C.2       1 <0>         0.5000 
     20 N1        -29.4668   25.8426   63.4701 N.am      1 <0>        -0.5000 
     21 N2        -27.4102   27.4236   58.1888 N.am      1 <0>        -0.2244 
     22 N3        -32.2520   24.9672   65.5860 N.am      1 <0>        -0.1400 
     23 O1        -34.3765   26.8322   68.0854 O.3       1 <0>        -0.6830 
     24 O2        -26.2095   28.0108   57.7595 O.3       1 <0>        -0.4375 
     25 O3        -27.0102   28.2257   60.2525 O.2       1 <0>        -0.5000 
     26 O4        -30.2103   24.6149   61.7129 O.2       1 <0>        -0.5000 
     27 O5        -31.1509   26.9216   65.3111 O.2       1 <0>        -0.5000 
     28 H1        -35.8093   28.5564   59.4567 H         1 <0>         0.0600 
     29 H2        -34.6175   29.8235   59.5574 H         1 <0>         0.0600 
     30 H3        -35.5965   29.4238   60.9748 H         1 <0>         0.0600 
     31 H4        -27.7107   26.6240   65.3754 H         1 <0>         0.0600 
     32 H5        -28.9260   26.6236   66.6529 H         1 <0>         0.0600 
     33 H6        -27.4122   25.7762   66.8873 H         1 <0>         0.0600 
     34 H7        -27.1973   24.2924   64.1864 H         1 <0>         0.0600 
     35 H8        -26.9975   23.5656   65.7778 H         1 <0>         0.0600 
     36 H9        -28.1536   22.8862   64.6478 H         1 <0>         0.0600 
     37 H10       -34.4798   23.1897   64.8124 H         1 <0>         0.0600 
     38 H11       -33.8730   22.1420   66.0938 H         1 <0>         0.0600 
     39 H12       -35.3178   24.3751   66.7082 H         1 <0>         0.0600 
     40 H13       -33.9350   23.8956   67.6831 H         1 <0>         0.0600 
     41 H14       -32.2667   23.3285   64.2227 H         1 <0>         0.0600 
     42 H15       -31.6550   23.0231   65.8541 H         1 <0>         0.0600 
     43 H16       -34.4439   27.1694   61.0565 H         1 <0>         0.0600 
     44 H17       -33.4793   27.6274   59.6703 H         1 <0>         0.0600 
     45 H18       -32.5606   29.5818   61.0531 H         1 <0>         0.0600 
     46 H19       -33.4839   28.9992   62.4017 H         1 <0>         0.0600 
     47 H20       -31.2831   28.2241   62.7450 H         1 <0>         0.0600 
     48 H21       -32.2066   26.8279   62.2736 H         1 <0>         0.0600 
     49 H22       -31.2340   26.8871   60.0005 H         1 <0>         0.0600 
     50 H23       -30.5231   28.4504   60.2883 H         1 <0>         0.0600 
     51 H24       -32.6057   25.8240   68.2407 H         1 <0>         0.0600 
     52 H25       -32.6095   27.2638   67.2282 H         1 <0>         0.0600 
     53 H26       -27.9052   25.5601   60.3786 H         1 <0>         0.0600 
     54 H27       -29.1780   25.9811   59.2719 H         1 <0>         0.0600 
     55 H28       -34.0342   26.0283   65.5292 H         1 <0>         0.0600 
     56 H29       -29.2670   24.2229   66.4302 H         1 <0>         0.0600 
     57 H30       -28.9093   27.5829   61.8427 H         1 <0>         0.0600 
     58 H31       -30.2268   24.0189   64.1312 H         1 <0>         0.0600 
     59 H32       -29.1030   26.7399   63.7527 H         1 <0>         0.3000 
     60 H33       -27.7505   26.7322   57.5268 H         1 <0>         0.3000 
     61 H34       -34.8816   27.2820   67.4234 H         1 <0>         0.4180 
     62 H35       -25.8739   28.3909   58.5616 H         1 <0>         0.3619 
@<TRIPOS>BOND
     1    1    7 1    
     2    1   28 1    
     3    1   29 1    
     4    1   30 1    
     5    2   14 1    
     6    2   31 1    
     7    2   32 1    
     8    2   33 1    
     9    3   14 1    
    10    3   34 1    
    11    3   35 1    
    12    3   36 1    
    13    4    5 1    
    14    4    6 1    
    15    4   37 1    
    16    4   38 1    
    17    5   13 1    
    18    5   39 1    
    19    5   40 1    
    20    6   22 1    
    21    6   41 1    
    22    6   42 1    
    23    7    8 1    
    24    7   43 1    
    25    7   44 1    
    26    8    9 1    
    27    8   45 1    
    28    8   46 1    
    29    9   10 1    
    30    9   47 1    
    31    9   48 1    
    32   10   15 1    
    33   10   49 1    
    34   10   50 1    
    35   11   13 1    
    36   11   23 1    
    37   11   51 1    
    38   11   52 1    
    39   12   15 1    
    40   12   17 1    
    41   12   53 1    
    42   12   54 1    
    43   13   22 1    
    44   13   55 1    
    45   14   16 1    
    46   14   56 1    
    47   15   18 1    
    48   15   57 1    
    49   16   19 1    
    50   16   20 1    
    51   16   58 1    
    52   17   21 am   BACKBONE|DICT|INTERRES
    53   17   25 2    
    54   18   20 am   BACKBONE|DICT|INTERRES
    55   18   26 2    
    56   19   22 am   BACKBONE|DICT|INTERRES
    57   19   27 2    
    58   20   59 1    
    59   21   24 1    
    60   21   60 1    
    61   23   61 1    
    62   24   62 1    
@<TRIPOS>SUBSTRUCTURE
     1 <0>         1 GROUP             0       ****    0 ROOT    
@<TRIPOS>MOLECULE
BB2_501_1LRU
62   62    1
SMALL
USER_CHARGES


@<TRIPOS>ATOM
      1 C1        -35.1577   28.8986   60.1858 C.3       1 <0>        -0.1800 
      2 C2        -27.8401   26.0254   65.9077 C.3       1 <0>        -0.1800 
      3 C3        -27.3883   23.7924   64.8031 C.3       1 <0>        -0.1800 
      4 C4        -33.5461   22.7737   64.9100 C.3       1 <0>        -0.1200 
      5 C5        -34.0233   23.5462   66.1357 C.3       1 <0>        -0.1200 
      6 C6        -32.0998   23.2348   64.7137 C.3       1 <0>        -0.0500 
      7 C7        -33.9370   28.0405   60.5358 C.3       1 <0>        -0.1200 
      8 C8        -33.0198   28.7135   61.5669 C.3       1 <0>        -0.1200 
      9 C9        -31.8244   27.8317   61.9545 C.3       1 <0>        -0.1200 
     10 C10       -30.8232   27.6544   60.7972 C.3       1 <0>        -0.1200 
     11 C11       -32.9244   25.3877   67.4762 C.3       1 <0>         0.1450 
     12 C12       -28.6992   26.5358   59.9431 C.3       1 <0>        -0.1200 
     13 C13       -33.2420   24.8613   66.0796 C.3       1 <0>         0.0100 
     14 C14       -28.4656   24.7072   65.4107 C.3       1 <0>        -0.0600 
     15 C15       -29.5049   26.9532   61.1988 C.3       1 <0>        -0.0600 
     16 C16       -29.6820   24.9151   64.4620 C.3       1 <0>         0.1400 
     17 C17       -27.7840   27.6439   59.4058 C.2       1 <0>         0.5000 
     18 C18       -29.7731   25.7310   62.0930 C.2       1 <0>         0.5000 
     19 C19       -30.9552   25.4112   65.1800 C.2       1 <0>         0.5000 
     20 N1        -29.3457   25.8184   63.3602 N.am      1 <0>        -0.5000 
     21 N2        -27.8083   27.8530   58.0823 N.am      1 <0>        -0.2244 
     22 N3        -32.0317   24.5593   65.3206 N.am      1 <0>        -0.1400 
     23 O1        -34.0810   25.8505   68.1449 O.3       1 <0>        -0.6830 
     24 O2        -26.6721   28.5066   57.5602 O.3       1 <0>        -0.4375 
     25 O3        -27.0372   28.2561   60.1706 O.2       1 <0>        -0.5000 
     26 O4        -30.3358   24.7374   61.6337 O.2       1 <0>        -0.5000 
     27 O5        -30.9732   26.5601   65.6283 O.2       1 <0>        -0.5000 
     28 H1        -35.7888   28.3955   59.4528 H         1 <0>         0.0600 
     29 H2        -34.8572   29.8577   59.7630 H         1 <0>         0.0600 
     30 H3        -35.7665   29.0965   61.0684 H         1 <0>         0.0600 
     31 H4        -27.4090   26.6015   65.0886 H         1 <0>         0.0600 
     32 H5        -28.5759   26.6560   66.4070 H         1 <0>         0.0600 
     33 H6        -27.0420   25.8315   66.6246 H         1 <0>         0.0600 
     34 H7        -26.9027   24.2554   63.9449 H         1 <0>         0.0600 
     35 H8        -26.6112   23.5647   65.5331 H         1 <0>         0.0600 
     36 H9        -27.8151   22.8450   64.4730 H         1 <0>         0.0600 
     37 H10       -34.1423   23.0593   64.0433 H         1 <0>         0.0600 
     38 H11       -33.6330   21.6938   65.0293 H         1 <0>         0.0600 
     39 H12       -35.1028   23.6962   66.1485 H         1 <0>         0.0600 
     40 H13       -33.7549   22.9993   67.0396 H         1 <0>         0.0600 
     41 H14       -31.8235   23.2522   63.6594 H         1 <0>         0.0600 
     42 H15       -31.4089   22.5699   65.2321 H         1 <0>         0.0600 
     43 H16       -34.2739   27.0766   60.9190 H         1 <0>         0.0600 
     44 H17       -33.3734   27.8307   59.6259 H         1 <0>         0.0600 
     45 H18       -32.6562   29.6603   61.1653 H         1 <0>         0.0600 
     46 H19       -33.5963   28.9578   62.4601 H         1 <0>         0.0600 
     47 H20       -31.3131   28.2719   62.8115 H         1 <0>         0.0600 
     48 H21       -32.1942   26.8596   62.2824 H         1 <0>         0.0600 
     49 H22       -31.3010   27.1079   59.9824 H         1 <0>         0.0600 
     50 H23       -30.5872   28.6400   60.3942 H         1 <0>         0.0600 
     51 H24       -32.4393   24.6281   68.0892 H         1 <0>         0.0600 
     52 H25       -32.2209   26.2175   67.4026 H         1 <0>         0.0600 
     53 H26       -28.1188   25.6342   60.1472 H         1 <0>         0.0600 
     54 H27       -29.3864   26.2741   59.1381 H         1 <0>         0.0600 
     55 H28       -33.8101   25.6275   65.5520 H         1 <0>         0.0600 
     56 H29       -28.8315   24.1883   66.2974 H         1 <0>         0.0600 
     57 H30       -28.9140   27.6772   61.7636 H         1 <0>         0.0600 
     58 H31       -29.9279   23.9513   64.0164 H         1 <0>         0.0600 
     59 H32       -28.7278   26.5820   63.5962 H         1 <0>         0.3000 
     60 H33       -28.2386   27.2617   57.3853 H         1 <0>         0.3000 
     61 H34       -34.6905   25.1325   68.2244 H         1 <0>         0.4180 
     62 H35       -26.9504   28.7486   56.6879 H         1 <0>         0.3619 
@<TRIPOS>BOND
     1    1    7 1    
     2    1   28 1    
     3    1   29 1    
     4    1   30 1    
     5    2   14 1    
     6    2   31 1    
     7    2   32 1    
     8    2   33 1    
     9    3   14 1    
    10    3   34 1    
    11    3   35 1    
    12    3   36 1    
    13    4    5 1    
    14    4    6 1    
    15    4   37 1    
    16    4   38 1    
    17    5   13 1    
    18    5   39 1    
    19    5   40 1    
    20    6   22 1    
    21    6   41 1    
    22    6   42 1    
    23    7    8 1    
    24    7   43 1    
    25    7   44 1    
    26    8    9 1    
    27    8   45 1    
    28    8   46 1    
    29    9   10 1    
    30    9   47 1    
    31    9   48 1    
    32   10   15 1    
    33   10   49 1    
    34   10   50 1    
    35   11   13 1    
    36   11   23 1    
    37   11   51 1    
    38   11   52 1    
    39   12   15 1    
    40   12   17 1    
    41   12   53 1    
    42   12   54 1    
    43   13   22 1    
    44   13   55 1    
    45   14   16 1    
    46   14   56 1    
    47   15   18 1    
    48   15   57 1    
    49   16   19 1    
    50   16   20 1    
    51   16   58 1    
    52   17   21 am   BACKBONE|DICT|INTERRES
    53   17   25 2    
    54   18   20 am   BACKBONE|DICT|INTERRES
    55   18   26 2    
    56   19   22 am   BACKBONE|DICT|INTERRES
    57   19   27 2    
    58   20   59 1    
    59   21   24 1    
    60   21   60 1    
    61   23   61 1    
    62   24   62 1    
@<TRIPOS>SUBSTRUCTURE
     1 <0>         1 GROUP             0       ****    0 ROOT    
@<TRIPOS>MOLECULE
BB2_501_1LRU
62   62    1
SMALL
USER_CHARGES


@<TRIPOS>ATOM
      1 C1        -34.6141   28.7890   59.8979 C.3       1 <0>        -0.1800 
      2 C2        -28.1060   26.0412   66.2537 C.3       1 <0>        -0.1800 
      3 C3        -27.3365   23.8254   65.3309 C.3       1 <0>        -0.1800 
      4 C4        -33.5260   22.4529   64.6774 C.3       1 <0>        -0.1200 
      5 C5        -34.0633   23.1476   65.9174 C.3       1 <0>        -0.1200 
      6 C6        -32.0809   22.9379   64.5861 C.3       1 <0>        -0.0500 
      7 C7        -33.5493   27.8574   60.4728 C.3       1 <0>        -0.1200 
      8 C8        -32.4955   28.6222   61.2815 C.3       1 <0>        -0.1200 
      9 C9        -31.3956   27.7144   61.8484 C.3       1 <0>        -0.1200 
     10 C10       -30.3277   27.3242   60.8045 C.3       1 <0>        -0.1200 
     11 C11       -33.1941   25.0321   67.4082 C.3       1 <0>         0.1450 
     12 C12       -28.0433   26.2393   60.3195 C.3       1 <0>        -0.1200 
     13 C13       -33.3198   24.4890   65.9589 C.3       1 <0>         0.0100 
     14 C14       -28.5612   24.6554   65.7572 C.3       1 <0>        -0.0600 
     15 C15       -29.0566   26.6758   61.4054 C.3       1 <0>        -0.0600 
     16 C16       -29.6401   24.6686   64.6343 C.3       1 <0>         0.1400 
     17 C17       -27.3745   27.4027   59.5824 C.2       1 <0>         0.5000 
     18 C18       -29.4227   25.4724   62.2881 C.2       1 <0>         0.5000 
     19 C19       -31.0144   25.1090   65.2076 C.2       1 <0>         0.5000 
     20 N1        -29.2270   25.6193   63.6045 N.am      1 <0>        -0.5000 
     21 N2        -27.5283   27.4235   58.2533 N.am      1 <0>        -0.2244 
     22 N3        -32.0281   24.2156   65.3030 N.am      1 <0>        -0.1400 
     23 O1        -33.4084   26.4297   67.4430 O.3       1 <0>        -0.6830 
     24 O2        -26.6096   28.2235   57.5492 O.3       1 <0>        -0.4375 
     25 O3        -26.6701   28.2159   60.1849 O.2       1 <0>        -0.5000 
     26 O4        -29.8967   24.4555   61.7821 O.2       1 <0>        -0.5000 
     27 O5        -31.1536   26.2757   65.5838 O.2       1 <0>        -0.5000 
     28 H1        -35.4134   28.2084   59.4541 H         1 <0>         0.0600 
     29 H2        -34.2099   29.4210   59.1103 H         1 <0>         0.0600 
     30 H3        -35.0514   29.4243   60.6650 H         1 <0>         0.0600 
     31 H4        -27.6096   26.6196   65.4754 H         1 <0>         0.0600 
     32 H5        -28.9412   26.6234   66.6265 H         1 <0>         0.0600 
     33 H6        -27.4092   25.9447   67.0828 H         1 <0>         0.0600 
     34 H7        -26.8268   24.2760   64.4796 H         1 <0>         0.0600 
     35 H8        -26.6095   23.7369   66.1399 H         1 <0>         0.0600 
     36 H9        -27.6230   22.8128   65.0473 H         1 <0>         0.0600 
     37 H10       -34.0840   22.7871   63.7996 H         1 <0>         0.0600 
     38 H11       -33.6110   21.3673   64.7256 H         1 <0>         0.0600 
     39 H12       -35.1461   23.2669   65.8929 H         1 <0>         0.0600 
     40 H13       -33.8137   22.5490   66.7939 H         1 <0>         0.0600 
     41 H14       -31.7867   23.0405   63.5405 H         1 <0>         0.0600 
     42 H15       -31.4096   22.2238   65.0530 H         1 <0>         0.0600 
     43 H16       -34.0284   27.1201   61.1181 H         1 <0>         0.0600 
     44 H17       -33.0768   27.3013   59.6636 H         1 <0>         0.0600 
     45 H18       -32.0430   29.4061   60.6749 H         1 <0>         0.0600 
     46 H19       -33.0010   29.1204   62.1105 H         1 <0>         0.0600 
     47 H20       -30.9058   28.2221   62.6771 H         1 <0>         0.0600 
     48 H21       -31.8514   26.8265   62.2883 H         1 <0>         0.0600 
     49 H22       -30.7690   26.6564   60.0633 H         1 <0>         0.0600 
     50 H23       -30.0320   28.2233   60.2612 H         1 <0>         0.0600 
     51 H24       -33.9492   24.5828   68.0539 H         1 <0>         0.0600 
     52 H25       -32.2253   24.7958   67.8525 H         1 <0>         0.0600 
     53 H26       -27.2442   25.6512   60.7733 H         1 <0>         0.0600 
     54 H27       -28.5290   25.5777   59.6009 H         1 <0>         0.0600 
     55 H28       -33.8699   25.1963   65.3331 H         1 <0>         0.0600 
     56 H29       -28.9942   24.1567   66.6257 H         1 <0>         0.0600 
     57 H30       -28.5754   27.4201   62.0437 H         1 <0>         0.0600 
     58 H31       -29.6926   23.6663   64.2110 H         1 <0>         0.0600 
     59 H32       -28.8640   26.4993   63.9351 H         1 <0>         0.3000 
     60 H33       -27.9823   26.7408   57.6529 H         1 <0>         0.3000 
     61 H34       -32.7433   26.8325   66.8974 H         1 <0>         0.4180 
     62 H35       -26.1087   28.6240   58.2480 H         1 <0>         0.3619 
@<TRIPOS>BOND
     1    1    7 1    
     2    1   28 1    
     3    1   29 1    
     4    1   30 1    
     5    2   14 1    
     6    2   31 1    
     7    2   32 1    
     8    2   33 1    
     9    3   14 1    
    10    3   34 1    
    11    3   35 1    
    12    3   36 1    
    13    4    5 1    
    14    4    6 1    
    15    4   37 1    
    16    4   38 1    
    17    5   13 1    
    18    5   39 1    
    19    5   40 1    
    20    6   22 1    
    21    6   41 1    
    22    6   42 1    
    23    7    8 1    
    24    7   43 1    
    25    7   44 1    
    26    8    9 1    
    27    8   45 1    
    28    8   46 1    
    29    9   10 1    
    30    9   47 1    
    31    9   48 1    
    32   10   15 1    
    33   10   49 1    
    34   10   50 1    
    35   11   13 1    
    36   11   23 1    
    37   11   51 1    
    38   11   52 1    
    39   12   15 1    
    40   12   17 1    
    41   12   53 1    
    42   12   54 1    
    43   13   22 1    
    44   13   55 1    
    45   14   16 1    
    46   14   56 1    
    47   15   18 1    
    48   15   57 1    
    49   16   19 1    
    50   16   20 1    
    51   16   58 1    
    52   17   21 am   BACKBONE|DICT|INTERRES
    53   17   25 2    
    54   18   20 am   BACKBONE|DICT|INTERRES
    55   18   26 2    
    56   19   22 am   BACKBONE|DICT|INTERRES
    57   19   27 2    
    58   20   59 1    
    59   21   24 1    
    60   21   60 1    
    61   23   61 1    
    62   24   62 1    
@<TRIPOS>SUBSTRUCTURE
     1 <0>         1 GROUP             0       ****    0 ROOT    
@<TRIPOS>MOLECULE
BB2_501_1LRU
62   62    1
SMALL
USER_CHARGES


@<TRIPOS>ATOM
      1 C1        -35.0069   28.9189   60.1847 C.3       1 <0>        -0.1800 
      2 C2        -27.8570   26.0095   65.8978 C.3       1 <0>        -0.1800 
      3 C3        -27.3794   23.7274   64.9342 C.3       1 <0>        -0.1800 
      4 C4        -33.6448   22.8542   64.8807 C.3       1 <0>        -0.1200 
      5 C5        -34.0540   23.6366   66.1173 C.3       1 <0>        -0.1200 
      6 C6        -32.1844   23.2480   64.6570 C.3       1 <0>        -0.0500 
      7 C7        -33.8747   27.9606   60.5683 C.3       1 <0>        -0.1200 
      8 C8        -32.8633   28.6241   61.5152 C.3       1 <0>        -0.1200 
      9 C9        -31.6837   27.7297   61.9131 C.3       1 <0>        -0.1200 
     10 C10       -30.7019   27.4400   60.7553 C.3       1 <0>        -0.1200 
     11 C11       -32.9866   25.5266   67.4675 C.3       1 <0>         0.1450 
     12 C12       -28.4535   26.4515   59.9924 C.3       1 <0>        -0.1200 
     13 C13       -33.2092   24.9158   66.0601 C.3       1 <0>         0.0100 
     14 C14       -28.4757   24.6679   65.4583 C.3       1 <0>        -0.0600 
     15 C15       -29.3570   26.8057   61.1984 C.3       1 <0>        -0.0600 
     16 C16       -29.6472   24.7785   64.4379 C.3       1 <0>         0.1400 
     17 C17       -27.7095   27.6526   59.4029 C.2       1 <0>         0.5000 
     18 C18       -29.5847   25.5708   62.0762 C.2       1 <0>         0.5000 
     19 C19       -30.9149   25.3382   65.1301 C.2       1 <0>         0.5000 
     20 N1        -29.2728   25.7043   63.3719 N.am      1 <0>        -0.5000 
     21 N2        -27.8086   27.8266   58.0760 N.am      1 <0>        -0.2244 
     22 N3        -31.9816   24.5289   65.3418 N.am      1 <0>        -0.1400 
     23 O1        -34.2089   25.9900   68.0070 O.3       1 <0>        -0.6830 
     24 O2        -26.6814   28.4016   57.4538 O.3       1 <0>        -0.4375 
     25 O3        -27.0093   28.3603   60.1246 O.2       1 <0>        -0.5000 
     26 O4        -30.0717   24.5457   61.5952 O.2       1 <0>        -0.5000 
     27 O5        -30.9244   26.5244   65.4660 O.2       1 <0>        -0.5000 
     28 H1        -35.6763   28.4707   59.4560 H         1 <0>         0.0600 
     29 H2        -34.6119   29.8234   59.7317 H         1 <0>         0.0600 
     30 H3        -35.5996   29.2049   61.0535 H         1 <0>         0.0600 
     31 H4        -27.4616   26.5786   65.0563 H         1 <0>         0.0600 
     32 H5        -28.5878   26.6244   66.4126 H         1 <0>         0.0600 
     33 H6        -27.0325   25.8564   66.5941 H         1 <0>         0.0600 
     34 H7        -26.8978   24.1311   64.0416 H         1 <0>         0.0600 
     35 H8        -26.6096   23.5677   65.6896 H         1 <0>         0.0600 
     36 H9        -27.7879   22.7483   64.6797 H         1 <0>         0.0600 
     37 H10       -34.2478   23.1711   64.0271 H         1 <0>         0.0600 
     38 H11       -33.7761   21.7765   64.9953 H         1 <0>         0.0600 
     39 H12       -35.1257   23.8365   66.1471 H         1 <0>         0.0600 
     40 H13       -33.8004   23.0535   67.0046 H         1 <0>         0.0600 
     41 H14       -31.9913   23.3342   63.5861 H         1 <0>         0.0600 
     42 H15       -31.5115   22.4925   65.0582 H         1 <0>         0.0600 
     43 H16       -34.2896   27.0696   61.0451 H         1 <0>         0.0600 
     44 H17       -33.3734   27.6242   59.6597 H         1 <0>         0.0600 
     45 H18       -32.4717   29.5268   61.0532 H         1 <0>         0.0600 
     46 H19       -33.3849   28.9422   62.4171 H         1 <0>         0.0600 
     47 H20       -31.1385   28.2233   62.7195 H         1 <0>         0.0600 
     48 H21       -32.0639   26.8000   62.3364 H         1 <0>         0.0600 
     49 H22       -31.1855   26.7913   60.0233 H         1 <0>         0.0600 
     50 H23       -30.4883   28.3747   60.2312 H         1 <0>         0.0600 
     51 H24       -32.5599   24.7906   68.1482 H         1 <0>         0.0600 
     52 H25       -32.3085   26.3778   67.4513 H         1 <0>         0.0600 
     53 H26       -27.6919   25.7283   60.2890 H         1 <0>         0.0600 
     54 H27       -29.0490   25.9596   59.2226 H         1 <0>         0.0600 
     55 H28       -33.7184   25.6492   65.4311 H         1 <0>         0.0600 
     56 H29       -28.8702   24.2136   66.3673 H         1 <0>         0.0600 
     57 H30       -28.8390   27.5455   61.8148 H         1 <0>         0.0600 
     58 H31       -29.8191   23.7864   64.0237 H         1 <0>         0.0600 
     59 H32       -28.9125   26.5981   63.6768 H         1 <0>         0.3000 
     60 H33       -28.2134   27.1198   57.4697 H         1 <0>         0.3000 
     61 H34       -34.8236   25.2710   68.0145 H         1 <0>         0.4180 
     62 H35       -26.9992   28.6692   56.6003 H         1 <0>         0.3619 
@<TRIPOS>BOND
     1    1    7 1    
     2    1   28 1    
     3    1   29 1    
     4    1   30 1    
     5    2   14 1    
     6    2   31 1    
     7    2   32 1    
     8    2   33 1    
     9    3   14 1    
    10    3   34 1    
    11    3   35 1    
    12    3   36 1    
    13    4    5 1    
    14    4    6 1    
    15    4   37 1    
    16    4   38 1    
    17    5   13 1    
    18    5   39 1    
    19    5   40 1    
    20    6   22 1    
    21    6   41 1    
    22    6   42 1    
    23    7    8 1    
    24    7   43 1    
    25    7   44 1    
    26    8    9 1    
    27    8   45 1    
    28    8   46 1    
    29    9   10 1    
    30    9   47 1    
    31    9   48 1    
    32   10   15 1    
    33   10   49 1    
    34   10   50 1    
    35   11   13 1    
    36   11   23 1    
    37   11   51 1    
    38   11   52 1    
    39   12   15 1    
    40   12   17 1    
    41   12   53 1    
    42   12   54 1    
    43   13   22 1    
    44   13   55 1    
    45   14   16 1    
    46   14   56 1    
    47   15   18 1    
    48   15   57 1    
    49   16   19 1    
    50   16   20 1    
    51   16   58 1    
    52   17   21 am   BACKBONE|DICT|INTERRES
    53   17   25 2    
    54   18   20 am   BACKBONE|DICT|INTERRES
    55   18   26 2    
    56   19   22 am   BACKBONE|DICT|INTERRES
    57   19   27 2    
    58   20   59 1    
    59   21   24 1    
    60   21   60 1    
    61   23   61 1    
    62   24   62 1    
@<TRIPOS>SUBSTRUCTURE
     1 <0>         1 GROUP             0       ****    0 ROOT    
@<TRIPOS>MOLECULE
BB2_501_1LRU
62   62    1
SMALL
USER_CHARGES


@<TRIPOS>ATOM
      1 C1        -35.0185   29.0211   60.2612 C.3       1 <0>        -0.1800 
      2 C2        -28.1983   26.0128   66.1205 C.3       1 <0>        -0.1800 
      3 C3        -27.7954   23.8708   64.8657 C.3       1 <0>        -0.1800 
      4 C4        -33.9515   23.2331   65.5396 C.3       1 <0>        -0.1200 
      5 C5        -34.3529   24.2423   66.5971 C.3       1 <0>        -0.1200 
      6 C6        -32.4990   23.5849   65.2309 C.3       1 <0>        -0.0500 
      7 C7        -33.8761   28.5090   61.1415 C.3       1 <0>        -0.1200 
      8 C8        -32.6908   28.0055   60.3066 C.3       1 <0>        -0.1200 
      9 C9        -31.5327   27.5002   61.1729 C.3       1 <0>        -0.1200 
     10 C10       -30.3220   27.0554   60.3274 C.3       1 <0>        -0.1200 
     11 C11       -33.1915   26.2830   67.5726 C.3       1 <0>         0.1450 
     12 C12       -27.9157   26.1957   60.2450 C.3       1 <0>        -0.1200 
     13 C13       -33.5146   25.4916   66.2842 C.3       1 <0>         0.0100 
     14 C14       -28.8654   24.7725   65.5104 C.3       1 <0>        -0.0600 
     15 C15       -29.0763   26.6546   61.1538 C.3       1 <0>        -0.0600 
     16 C16       -30.0299   25.0810   64.5267 C.3       1 <0>         0.1400 
     17 C17       -27.1684   27.3451   59.5758 C.2       1 <0>         0.5000 
     18 C18       -29.4033   25.5492   62.1614 C.2       1 <0>         0.5000 
     19 C19       -31.2614   25.7498   65.1870 C.2       1 <0>         0.5000 
     20 N1        -29.5695   25.9350   63.4343 N.am      1 <0>        -0.5000 
     21 N2        -27.0120   27.2600   58.2521 N.am      1 <0>        -0.2244 
     22 N3        -32.3214   24.9960   65.5694 N.am      1 <0>        -0.1400 
     23 O1        -34.3725   26.7178   68.2188 O.3       1 <0>        -0.6830 
     24 O2        -25.8098   27.8226   57.7868 O.3       1 <0>        -0.4375 
     25 O3        -26.6357   28.2231   60.2518 O.2       1 <0>        -0.5000 
     26 O4        -29.5267   24.3842   61.7830 O.2       1 <0>        -0.5000 
     27 O5        -31.2368   26.9711   65.3397 O.2       1 <0>        -0.5000 
     28 H1        -35.8459   29.4006   60.8641 H         1 <0>         0.0600 
     29 H2        -35.4096   28.2242   59.6328 H         1 <0>         0.0600 
     30 H3        -34.6781   29.8219   59.6063 H         1 <0>         0.0600 
     31 H4        -27.7223   26.6263   65.3568 H         1 <0>         0.0600 
     32 H5        -28.9267   26.6235   66.6515 H         1 <0>         0.0600 
     33 H6        -27.4311   25.7320   66.8408 H         1 <0>         0.0600 
     34 H7        -27.2799   24.3831   64.0533 H         1 <0>         0.0600 
     35 H8        -27.0446   23.5680   65.5949 H         1 <0>         0.0600 
     36 H9        -28.2366   22.9612   64.4558 H         1 <0>         0.0600 
     37 H10       -34.5625   23.3801   64.6458 H         1 <0>         0.0600 
     38 H11       -34.0826   22.2003   65.8618 H         1 <0>         0.0600 
     39 H12       -35.4248   24.4425   66.6020 H         1 <0>         0.0600 
     40 H13       -34.0857   23.8479   67.5786 H         1 <0>         0.0600 
     41 H14       -32.2961   23.3600   64.1832 H         1 <0>         0.0600 
     42 H15       -31.8063   23.0239   65.8537 H         1 <0>         0.0600 
     43 H16       -33.5481   29.3070   61.8078 H         1 <0>         0.0600 
     44 H17       -34.2484   27.7067   61.7806 H         1 <0>         0.0600 
     45 H18       -33.0233   27.2045   59.6450 H         1 <0>         0.0600 
     46 H19       -32.3269   28.8095   59.6720 H         1 <0>         0.0600 
     47 H20       -31.2210   28.2814   61.8624 H         1 <0>         0.0600 
     48 H21       -31.8930   26.6754   61.7865 H         1 <0>         0.0600 
     49 H22       -30.6177   26.2273   59.6814 H         1 <0>         0.0600 
     50 H23       -30.0501   27.8731   59.6592 H         1 <0>         0.0600 
     51 H24       -32.6075   25.6637   68.2531 H         1 <0>         0.0600 
     52 H25       -32.6100   27.1766   67.3636 H         1 <0>         0.0600 
     53 H26       -27.1753   25.6434   60.8249 H         1 <0>         0.0600 
     54 H27       -28.2866   25.4978   59.4908 H         1 <0>         0.0600 
     55 H28       -34.0665   26.1243   65.5860 H         1 <0>         0.0600 
     56 H29       -29.2955   24.2235   66.3472 H         1 <0>         0.0600 
     57 H30       -28.7526   27.5288   61.7245 H         1 <0>         0.0600 
     58 H31       -30.3226   24.1233   64.1038 H         1 <0>         0.0600 
     59 H32       -29.4832   26.9178   63.6513 H         1 <0>         0.3000 
     60 H33       -27.3051   26.4849   57.6689 H         1 <0>         0.3000 
     61 H34       -34.9003   27.1836   67.5865 H         1 <0>         0.4180 
     62 H35       -25.4796   28.2630   58.5584 H         1 <0>         0.3619 
@<TRIPOS>BOND
     1    1    7 1    
     2    1   28 1    
     3    1   29 1    
     4    1   30 1    
     5    2   14 1    
     6    2   31 1    
     7    2   32 1    
     8    2   33 1    
     9    3   14 1    
    10    3   34 1    
    11    3   35 1    
    12    3   36 1    
    13    4    5 1    
    14    4    6 1    
    15    4   37 1    
    16    4   38 1    
    17    5   13 1    
    18    5   39 1    
    19    5   40 1    
    20    6   22 1    
    21    6   41 1    
    22    6   42 1    
    23    7    8 1    
    24    7   43 1    
    25    7   44 1    
    26    8    9 1    
    27    8   45 1    
    28    8   46 1    
    29    9   10 1    
    30    9   47 1    
    31    9   48 1    
    32   10   15 1    
    33   10   49 1    
    34   10   50 1    
    35   11   13 1    
    36   11   23 1    
    37   11   51 1    
    38   11   52 1    
    39   12   15 1    
    40   12   17 1    
    41   12   53 1    
    42   12   54 1    
    43   13   22 1    
    44   13   55 1    
    45   14   16 1    
    46   14   56 1    
    47   15   18 1    
    48   15   57 1    
    49   16   19 1    
    50   16   20 1    
    51   16   58 1    
    52   17   21 am   BACKBONE|DICT|INTERRES
    53   17   25 2    
    54   18   20 am   BACKBONE|DICT|INTERRES
    55   18   26 2    
    56   19   22 am   BACKBONE|DICT|INTERRES
    57   19   27 2    
    58   20   59 1    
    59   21   24 1    
    60   21   60 1    
    61   23   61 1    
    62   24   62 1    
@<TRIPOS>SUBSTRUCTURE
     1 <0>         1 GROUP             0       ****    0 ROOT    
@<TRIPOS>MOLECULE
BB2_501_1LRU
62   62    1
SMALL
USER_CHARGES


@<TRIPOS>ATOM
      1 C1        -35.0472   28.9368   60.1735 C.3       1 <0>        -0.1800 
      2 C2        -27.8657   26.0256   65.9182 C.3       1 <0>        -0.1800 
      3 C3        -27.4333   23.7887   64.8137 C.3       1 <0>        -0.1800 
      4 C4        -33.5905   22.7822   64.8345 C.3       1 <0>        -0.1200 
      5 C5        -34.0973   23.5405   66.0571 C.3       1 <0>        -0.1200 
      6 C6        -32.1373   23.2388   64.6837 C.3       1 <0>        -0.0500 
      7 C7        -33.9153   28.0092   60.6290 C.3       1 <0>        -0.1200 
      8 C8        -32.9801   28.6768   61.6473 C.3       1 <0>        -0.1200 
      9 C9        -31.7753   27.7952   62.0052 C.3       1 <0>        -0.1200 
     10 C10       -30.7914   27.6367   60.8305 C.3       1 <0>        -0.1200 
     11 C11       -33.0269   25.3587   67.4515 C.3       1 <0>         0.1450 
     12 C12       -28.6902   26.5132   59.9278 C.3       1 <0>        -0.1200 
     13 C13       -33.3090   24.8525   66.0398 C.3       1 <0>         0.0100 
     14 C14       -28.5019   24.7109   65.4254 C.3       1 <0>        -0.0600 
     15 C15       -29.4663   26.9316   61.2017 C.3       1 <0>        -0.0600 
     16 C16       -29.7214   24.9257   64.4823 C.3       1 <0>         0.1400 
     17 C17       -27.7709   27.6134   59.3813 C.2       1 <0>         0.5000 
     18 C18       -29.7176   25.7093   62.1006 C.2       1 <0>         0.5000 
     19 C19       -30.9962   25.4034   65.2100 C.2       1 <0>         0.5000 
     20 N1        -29.3926   25.8474   63.3934 N.am      1 <0>        -0.5000 
     21 N2        -27.8072   27.8232   58.0582 N.am      1 <0>        -0.2244 
     22 N3        -32.0799   24.5549   65.3099 N.am      1 <0>        -0.1400 
     23 O1        -34.1883   25.8724   68.0733 O.3       1 <0>        -0.6830 
     24 O2        -26.6516   28.4256   57.5173 O.3       1 <0>        -0.4375 
     25 O3        -27.0106   28.2186   60.1384 O.2       1 <0>        -0.5000 
     26 O4        -30.1765   24.6717   61.6233 O.2       1 <0>        -0.5000 
     27 O5        -31.0090   26.5341   65.7022 O.2       1 <0>        -0.5000 
     28 H1        -35.6932   28.4360   59.4521 H         1 <0>         0.0600 
     29 H2        -34.6530   29.8357   59.6987 H         1 <0>         0.0600 
     30 H3        -35.6665   29.2460   61.0159 H         1 <0>         0.0600 
     31 H4        -27.4349   26.5982   65.0966 H         1 <0>         0.0600 
     32 H5        -28.5952   26.6613   66.4204 H         1 <0>         0.0600 
     33 H6        -27.0656   25.8273   66.6317 H         1 <0>         0.0600 
     34 H7        -26.9487   24.2479   63.9528 H         1 <0>         0.0600 
     35 H8        -26.6543   23.5568   65.5403 H         1 <0>         0.0600 
     36 H9        -27.8677   22.8437   64.4865 H         1 <0>         0.0600 
     37 H10       -34.1617   23.0822   63.9560 H         1 <0>         0.0600 
     38 H11       -33.6854   21.7012   64.9369 H         1 <0>         0.0600 
     39 H12       -35.1761   23.6956   66.0428 H         1 <0>         0.0600 
     40 H13       -33.8559   22.9804   66.9605 H         1 <0>         0.0600 
     41 H14       -31.8326   23.2689   63.6376 H         1 <0>         0.0600 
     42 H15       -31.4637   22.5638   65.2116 H         1 <0>         0.0600 
     43 H16       -34.3448   27.1056   61.0634 H         1 <0>         0.0600 
     44 H17       -33.3410   27.6899   59.7585 H         1 <0>         0.0600 
     45 H18       -32.6266   29.6275   61.2459 H         1 <0>         0.0600 
     46 H19       -33.5398   28.9130   62.5533 H         1 <0>         0.0600 
     47 H20       -31.2525   28.2267   62.8598 H         1 <0>         0.0600 
     48 H21       -32.1361   26.8175   62.3265 H         1 <0>         0.0600 
     49 H22       -31.2807   27.1017   60.0149 H         1 <0>         0.0600 
     50 H23       -30.5628   28.6286   60.4388 H         1 <0>         0.0600 
     51 H24       -32.6039   24.5753   68.0803 H         1 <0>         0.0600 
     52 H25       -32.2834   26.1552   67.4123 H         1 <0>         0.0600 
     53 H26       -28.1180   25.6026   60.1142 H         1 <0>         0.0600 
     54 H27       -29.3960   26.2667   59.1341 H         1 <0>         0.0600 
     55 H28       -33.8591   25.6284   65.5074 H         1 <0>         0.0600 
     56 H29       -28.8669   24.1952   66.3144 H         1 <0>         0.0600 
     57 H30       -28.8609   27.6534   61.7537 H         1 <0>         0.0600 
     58 H31       -29.9624   23.9672   64.0227 H         1 <0>         0.0600 
     59 H32       -28.8676   26.6679   63.6610 H         1 <0>         0.3000 
     60 H33       -28.2745   27.2516   57.3687 H         1 <0>         0.3000 
     61 H34       -34.8336   25.1834   68.1220 H         1 <0>         0.4180 
     62 H35       -26.9383   28.6961   56.6561 H         1 <0>         0.3619 
@<TRIPOS>BOND
     1    1    7 1    
     2    1   28 1    
     3    1   29 1    
     4    1   30 1    
     5    2   14 1    
     6    2   31 1    
     7    2   32 1    
     8    2   33 1    
     9    3   14 1    
    10    3   34 1    
    11    3   35 1    
    12    3   36 1    
    13    4    5 1    
    14    4    6 1    
    15    4   37 1    
    16    4   38 1    
    17    5   13 1    
    18    5   39 1    
    19    5   40 1    
    20    6   22 1    
    21    6   41 1    
    22    6   42 1    
    23    7    8 1    
    24    7   43 1    
    25    7   44 1    
    26    8    9 1    
    27    8   45 1    
    28    8   46 1    
    29    9   10 1    
    30    9   47 1    
    31    9   48 1    
    32   10   15 1    
    33   10   49 1    
    34   10   50 1    
    35   11   13 1    
    36   11   23 1    
    37   11   51 1    
    38   11   52 1    
    39   12   15 1    
    40   12   17 1    
    41   12   53 1    
    42   12   54 1    
    43   13   22 1    
    44   13   55 1    
    45   14   16 1    
    46   14   56 1    
    47   15   18 1    
    48   15   57 1    
    49   16   19 1    
    50   16   20 1    
    51   16   58 1    
    52   17   21 am   BACKBONE|DICT|INTERRES
    53   17   25 2    
    54   18   20 am   BACKBONE|DICT|INTERRES
    55   18   26 2    
    56   19   22 am   BACKBONE|DICT|INTERRES
    57   19   27 2    
    58   20   59 1    
    59   21   24 1    
    60   21   60 1    
    61   23   61 1    
    62   24   62 1    
@<TRIPOS>SUBSTRUCTURE
     1 <0>         1 GROUP             0       ****    0 ROOT    
@<TRIPOS>MOLECULE
BB2_501_1LRU
62   62    1
SMALL
USER_CHARGES


@<TRIPOS>ATOM
      1 C1        -34.5704   27.9732   61.9811 C.3       1 <0>        -0.1800 
      2 C2        -28.4920   26.2220   65.8868 C.3       1 <0>        -0.1800 
      3 C3        -28.1297   23.9903   64.7684 C.3       1 <0>        -0.1800 
      4 C4        -33.8088   23.1888   66.1849 C.3       1 <0>        -0.1200 
      5 C5        -34.3952   24.3659   66.9396 C.3       1 <0>        -0.1200 
      6 C6        -32.3978   23.6513   65.8408 C.3       1 <0>        -0.0500 
      7 C7        -33.8548   28.9436   61.0322 C.3       1 <0>        -0.1200 
      8 C8        -32.7498   28.2873   60.1912 C.3       1 <0>        -0.1200 
      9 C9        -31.5728   27.7862   61.0327 C.3       1 <0>        -0.1200 
     10 C10       -30.4250   27.1901   60.1946 C.3       1 <0>        -0.1200 
     11 C11       -33.4170   26.6529   67.4607 C.3       1 <0>         0.1450 
     12 C12       -28.0215   26.2783   60.1714 C.3       1 <0>        -0.1200 
     13 C13       -33.6985   25.6059   66.3605 C.3       1 <0>         0.0100 
     14 C14       -29.1767   24.9459   65.3687 C.3       1 <0>        -0.0600 
     15 C15       -29.1992   26.7627   61.0410 C.3       1 <0>        -0.0600 
     16 C16       -30.3402   25.2402   64.3831 C.3       1 <0>         0.1400 
     17 C17       -27.3098   27.4155   59.4520 C.2       1 <0>         0.5000 
     18 C18       -29.5774   25.6671   62.0442 C.2       1 <0>         0.5000 
     19 C19       -31.5936   25.8814   65.0288 C.2       1 <0>         0.5000 
     20 N1        -29.8707   26.0810   63.2830 N.am      1 <0>        -0.5000 
     21 N2        -27.4095   27.4235   58.1210 N.am      1 <0>        -0.2244 
     22 N3        -32.4698   25.1075   65.7166 N.am      1 <0>        -0.1400 
     23 O1        -34.6086   27.0480   68.1121 O.3       1 <0>        -0.6830 
     24 O2        -26.4728   28.2231   57.4532 O.3       1 <0>        -0.4375 
     25 O3        -26.6199   28.2223   60.0776 O.2       1 <0>        -0.5000 
     26 O4        -29.6176   24.4902   61.6919 O.2       1 <0>        -0.5000 
     27 O5        -31.7628   27.0964   64.9010 O.2       1 <0>        -0.5000 
     28 H1        -35.4093   28.4737   62.4648 H         1 <0>         0.0600 
     29 H2        -33.9113   27.6148   62.7727 H         1 <0>         0.0600 
     30 H3        -34.9640   27.1051   61.4526 H         1 <0>         0.0600 
     31 H4        -27.9102   26.7075   65.1026 H         1 <0>         0.0600 
     32 H5        -29.2207   26.9459   66.2476 H         1 <0>         0.0600 
     33 H6        -27.8101   25.9984   66.7078 H         1 <0>         0.0600 
     34 H7        -27.5830   24.4588   63.9515 H         1 <0>         0.0600 
     35 H8        -27.4031   23.6859   65.5206 H         1 <0>         0.0600 
     36 H9        -28.5958   23.0866   64.3771 H         1 <0>         0.0600 
     37 H10       -34.3745   23.0170   65.2666 H         1 <0>         0.0600 
     38 H11       -33.8249   22.2616   66.7621 H         1 <0>         0.0600 
     39 H12       -35.4804   24.4178   66.8524 H         1 <0>         0.0600 
     40 H13       -34.1571   24.2532   67.9984 H         1 <0>         0.0600 
     41 H14       -32.0598   23.1270   64.9485 H         1 <0>         0.0600 
     42 H15       -31.7077   23.4329   66.6530 H         1 <0>         0.0600 
     43 H16       -34.5926   29.3873   60.3637 H         1 <0>         0.0600 
     44 H17       -33.4328   29.7689   61.6084 H         1 <0>         0.0600 
     45 H18       -33.1697   27.4674   59.6066 H         1 <0>         0.0600 
     46 H19       -32.3728   29.0187   59.4695 H         1 <0>         0.0600 
     47 H20       -31.1870   28.6099   61.6317 H         1 <0>         0.0600 
     48 H21       -31.9429   27.0399   61.7344 H         1 <0>         0.0600 
     49 H22       -30.7956   26.3348   59.6237 H         1 <0>         0.0600 
     50 H23       -30.1165   27.9293   59.4533 H         1 <0>         0.0600 
     51 H24       -32.7431   26.2234   68.1993 H         1 <0>         0.0600 
     52 H25       -32.9442   27.5485   67.0610 H         1 <0>         0.0600 
     53 H26       -27.2750   25.7791   60.7925 H         1 <0>         0.0600 
     54 H27       -28.3640   25.5308   59.4528 H         1 <0>         0.0600 
     55 H28       -34.3283   26.0411   65.5812 H         1 <0>         0.0600 
     56 H29       -29.6026   24.4381   66.2337 H         1 <0>         0.0600 
     57 H30       -28.8642   27.6291   61.6142 H         1 <0>         0.0600 
     58 H31       -30.6530   24.2941   63.9450 H         1 <0>         0.0600 
     59 H32       -29.8501   27.0743   63.4736 H         1 <0>         0.3000 
     60 H33       -27.8710   26.7594   57.5052 H         1 <0>         0.3000 
     61 H34       -35.2063   27.3801   67.4568 H         1 <0>         0.4180 
     62 H35       -26.0212   28.6469   58.1697 H         1 <0>         0.3619 
@<TRIPOS>BOND
     1    1    7 1    
     2    1   28 1    
     3    1   29 1    
     4    1   30 1    
     5    2   14 1    
     6    2   31 1    
     7    2   32 1    
     8    2   33 1    
     9    3   14 1    
    10    3   34 1    
    11    3   35 1    
    12    3   36 1    
    13    4    5 1    
    14    4    6 1    
    15    4   37 1    
    16    4   38 1    
    17    5   13 1    
    18    5   39 1    
    19    5   40 1    
    20    6   22 1    
    21    6   41 1    
    22    6   42 1    
    23    7    8 1    
    24    7   43 1    
    25    7   44 1    
    26    8    9 1    
    27    8   45 1    
    28    8   46 1    
    29    9   10 1    
    30    9   47 1    
    31    9   48 1    
    32   10   15 1    
    33   10   49 1    
    34   10   50 1    
    35   11   13 1    
    36   11   23 1    
    37   11   51 1    
    38   11   52 1    
    39   12   15 1    
    40   12   17 1    
    41   12   53 1    
    42   12   54 1    
    43   13   22 1    
    44   13   55 1    
    45   14   16 1    
    46   14   56 1    
    47   15   18 1    
    48   15   57 1    
    49   16   19 1    
    50   16   20 1    
    51   16   58 1    
    52   17   21 am   BACKBONE|DICT|INTERRES
    53   17   25 2    
    54   18   20 am   BACKBONE|DICT|INTERRES
    55   18   26 2    
    56   19   22 am   BACKBONE|DICT|INTERRES
    57   19   27 2    
    58   20   59 1    
    59   21   24 1    
    60   21   60 1    
    61   23   61 1    
    62   24   62 1    
@<TRIPOS>SUBSTRUCTURE
     1 <0>         1 GROUP             0       ****    0 ROOT    
@<TRIPOS>MOLECULE
BB2_501_1LRU
62   62    1
SMALL
USER_CHARGES


@<TRIPOS>ATOM
      1 C1        -35.1062   28.9941   60.2426 C.3       1 <0>        -0.1800 
      2 C2        -28.1250   26.0125   66.2020 C.3       1 <0>        -0.1800 
      3 C3        -27.6381   23.8203   65.0532 C.3       1 <0>        -0.1800 
      4 C4        -33.9226   23.2825   65.2381 C.3       1 <0>        -0.1200 
      5 C5        -34.2825   24.2145   66.3838 C.3       1 <0>        -0.1200 
      6 C6        -32.4527   23.5795   64.9584 C.3       1 <0>        -0.0500 
      7 C7        -33.9884   28.5023   61.1620 C.3       1 <0>        -0.1200 
      8 C8        -32.7700   28.0355   60.3582 C.3       1 <0>        -0.1200 
      9 C9        -31.6270   27.5255   61.2380 C.3       1 <0>        -0.1200 
     10 C10       -30.3701   27.1912   60.4111 C.3       1 <0>        -0.1200 
     11 C11       -33.0751   26.1685   67.5139 C.3       1 <0>         0.1450 
     12 C12       -27.9146   26.4300   60.3952 C.3       1 <0>        -0.1200 
     13 C13       -33.3852   25.4418   66.1810 C.3       1 <0>         0.0100 
     14 C14       -28.7447   24.7400   65.6023 C.3       1 <0>        -0.0600 
     15 C15       -29.1360   26.7995   61.2586 C.3       1 <0>        -0.0600 
     16 C16       -29.8576   24.9810   64.5453 C.3       1 <0>         0.1400 
     17 C17       -27.4155   27.5859   59.5380 C.2       1 <0>         0.5000 
     18 C18       -29.4637   25.6250   62.1833 C.2       1 <0>         0.5000 
     19 C19       -31.1033   25.6672   65.1617 C.2       1 <0>         0.5000 
     20 N1        -29.3547   25.8574   63.4942 N.am      1 <0>        -0.5000 
     21 N2        -27.4093   27.3708   58.2215 N.am      1 <0>        -0.2244 
     22 N3        -32.1954   24.9299   65.4736 N.am      1 <0>        -0.1400 
     23 O1        -34.2536   26.6889   68.0940 O.3       1 <0>        -0.6830 
     24 O2        -26.6095   28.2280   57.4588 O.3       1 <0>        -0.4375 
     25 O3        -27.0081   28.6233   60.0533 O.2       1 <0>        -0.5000 
     26 O4        -29.8422   24.5514   61.7096 O.2       1 <0>        -0.5000 
     27 O5        -31.0673   26.8855   65.3484 O.2       1 <0>        -0.5000 
     28 H1        -35.9829   29.3135   60.8045 H         1 <0>         0.0600 
     29 H2        -35.4090   28.2054   59.5575 H         1 <0>         0.0600 
     30 H3        -34.7663   29.8233   59.6306 H         1 <0>         0.0600 
     31 H4        -27.6055   26.6168   65.4555 H         1 <0>         0.0600 
     32 H5        -28.8951   26.6239   66.6531 H         1 <0>         0.0600 
     33 H6        -27.4140   25.7688   66.9895 H         1 <0>         0.0600 
     34 H7        -27.0808   24.3040   64.2515 H         1 <0>         0.0600 
     35 H8        -26.9276   23.5480   65.8325 H         1 <0>         0.0600 
     36 H9        -28.0495   22.8953   64.6529 H         1 <0>         0.0600 
     37 H10       -34.5215   23.5332   64.3612 H         1 <0>         0.0600 
     38 H11       -34.1002   22.2319   65.4724 H         1 <0>         0.0600 
     39 H12       -35.3428   24.4681   66.3997 H         1 <0>         0.0600 
     40 H13       -34.0448   23.7292   67.3317 H         1 <0>         0.0600 
     41 H14       -32.2622   23.5167   63.8845 H         1 <0>         0.0600 
     42 H15       -31.7982   22.8651   65.4531 H         1 <0>         0.0600 
     43 H16       -33.7002   29.3050   61.8439 H         1 <0>         0.0600 
     44 H17       -34.3609   27.6855   61.7806 H         1 <0>         0.0600 
     45 H18       -33.0719   27.2443   59.6686 H         1 <0>         0.0600 
     46 H19       -32.4002   28.8580   59.7462 H         1 <0>         0.0600 
     47 H20       -31.3747   28.2791   61.9870 H         1 <0>         0.0600 
     48 H21       -31.9740   26.6500   61.7891 H         1 <0>         0.0600 
     49 H22       -30.6011   26.3952   59.6992 H         1 <0>         0.0600 
     50 H23       -30.1248   28.0665   59.8113 H         1 <0>         0.0600 
     51 H24       -32.5981   25.4880   68.2193 H         1 <0>         0.0600 
     52 H25       -32.4064   27.0169   67.3755 H         1 <0>         0.0600 
     53 H26       -27.0859   26.1140   61.0323 H         1 <0>         0.0600 
     54 H27       -28.1486   25.5731   59.7591 H         1 <0>         0.0600 
     55 H28       -33.8795   26.1360   65.4995 H         1 <0>         0.0600 
     56 H29       -29.2109   24.2227   66.4444 H         1 <0>         0.0600 
     57 H30       -28.8715   27.6596   61.8776 H         1 <0>         0.0600 
     58 H31       -30.1186   24.0129   64.1247 H         1 <0>         0.0600 
     59 H32       -29.0700   26.7788   63.7929 H         1 <0>         0.3000 
     60 H33       -27.7262   26.5634   57.6926 H         1 <0>         0.3000 
     61 H34       -34.6794   27.2387   67.4543 H         1 <0>         0.4180 
     62 H35       -26.3366   28.8728   58.0961 H         1 <0>         0.3619 
@<TRIPOS>BOND
     1    1    7 1    
     2    1   28 1    
     3    1   29 1    
     4    1   30 1    
     5    2   14 1    
     6    2   31 1    
     7    2   32 1    
     8    2   33 1    
     9    3   14 1    
    10    3   34 1    
    11    3   35 1    
    12    3   36 1    
    13    4    5 1    
    14    4    6 1    
    15    4   37 1    
    16    4   38 1    
    17    5   13 1    
    18    5   39 1    
    19    5   40 1    
    20    6   22 1    
    21    6   41 1    
    22    6   42 1    
    23    7    8 1    
    24    7   43 1    
    25    7   44 1    
    26    8    9 1    
    27    8   45 1    
    28    8   46 1    
    29    9   10 1    
    30    9   47 1    
    31    9   48 1    
    32   10   15 1    
    33   10   49 1    
    34   10   50 1    
    35   11   13 1    
    36   11   23 1    
    37   11   51 1    
    38   11   52 1    
    39   12   15 1    
    40   12   17 1    
    41   12   53 1    
    42   12   54 1    
    43   13   22 1    
    44   13   55 1    
    45   14   16 1    
    46   14   56 1    
    47   15   18 1    
    48   15   57 1    
    49   16   19 1    
    50   16   20 1    
    51   16   58 1    
    52   17   21 am   BACKBONE|DICT|INTERRES
    53   17   25 2    
    54   18   20 am   BACKBONE|DICT|INTERRES
    55   18   26 2    
    56   19   22 am   BACKBONE|DICT|INTERRES
    57   19   27 2    
    58   20   59 1    
    59   21   24 1    
    60   21   60 1    
    61   23   61 1    
    62   24   62 1    
@<TRIPOS>SUBSTRUCTURE
     1 <0>         1 GROUP             0       ****    0 ROOT    
@<TRIPOS>MOLECULE
BB2_501_1LRU
62   62    1
SMALL
USER_CHARGES


@<TRIPOS>ATOM
      1 C1        -34.9677   28.9049   60.1393 C.3       1 <0>        -0.1800 
      2 C2        -28.1679   25.8135   66.4213 C.3       1 <0>        -0.1800 
      3 C3        -27.3356   23.9359   64.9405 C.3       1 <0>        -0.1800 
      4 C4        -33.7000   22.9149   64.9693 C.3       1 <0>        -0.1200 
      5 C5        -34.1913   23.7716   66.1318 C.3       1 <0>        -0.1200 
      6 C6        -32.2249   23.2947   64.8186 C.3       1 <0>        -0.0500 
      7 C7        -33.7928   28.0163   60.5625 C.3       1 <0>        -0.1200 
      8 C8        -32.8364   28.7260   61.5315 C.3       1 <0>        -0.1200 
      9 C9        -31.6784   27.8238   61.9808 C.3       1 <0>        -0.1200 
     10 C10       -30.5905   27.6791   60.8997 C.3       1 <0>        -0.1200 
     11 C11       -33.0611   25.6243   67.4301 C.3       1 <0>         0.1450 
     12 C12       -28.4828   26.4613   60.1469 C.3       1 <0>        -0.1200 
     13 C13       -33.3427   25.0427   66.0477 C.3       1 <0>         0.0100 
     14 C14       -28.5708   24.5727   65.6002 C.3       1 <0>        -0.0600 
     15 C15       -29.3326   26.9082   61.3627 C.3       1 <0>        -0.0600 
     16 C16       -29.7203   24.8447   64.5864 C.3       1 <0>         0.1400 
     17 C17       -27.6460   27.5926   59.5351 C.2       1 <0>         0.5000 
     18 C18       -29.7097   25.6933   62.2272 C.2       1 <0>         0.5000 
     19 C19       -30.9933   25.4343   65.2304 C.2       1 <0>         0.5000 
     20 N1        -29.2686   25.7065   63.4926 N.am      1 <0>        -0.5000 
     21 N2        -27.8014   27.8113   58.2221 N.am      1 <0>        -0.2244 
     22 N3        -32.1168   24.6439   65.3621 N.am      1 <0>        -0.1400 
     23 O1        -34.2320   26.1260   68.0437 O.3       1 <0>        -0.6830 
     24 O2        -26.7156   28.4546   57.5914 O.3       1 <0>        -0.4375 
     25 O3        -26.8418   28.2145   60.2308 O.2       1 <0>        -0.5000 
     26 O4        -30.3662   24.7696   61.7470 O.2       1 <0>        -0.5000 
     27 O5        -30.9696   26.6011   65.6293 O.2       1 <0>        -0.5000 
     28 H1        -35.6280   28.3748   59.4526 H         1 <0>         0.0600 
     29 H2        -34.6183   29.8063   59.6351 H         1 <0>         0.0600 
     30 H3        -35.5610   29.2108   61.0014 H         1 <0>         0.0600 
     31 H4        -27.7492   26.5970   65.7895 H         1 <0>         0.0600 
     32 H5        -29.0194   26.2357   66.9551 H         1 <0>         0.0600 
     33 H6        -27.4141   25.5588   67.1667 H         1 <0>         0.0600 
     34 H7        -26.8449   24.6243   64.2535 H         1 <0>         0.0600 
     35 H8        -26.5992   23.6434   65.6893 H         1 <0>         0.0600 
     36 H9        -27.6051   23.0409   64.3792 H         1 <0>         0.0600 
     37 H10       -34.2419   23.1841   64.0626 H         1 <0>         0.0600 
     38 H11       -33.8467   21.8480   65.1374 H         1 <0>         0.0600 
     39 H12       -35.2614   23.9742   66.0866 H         1 <0>         0.0600 
     40 H13       -33.9914   23.2597   67.0731 H         1 <0>         0.0600 
     41 H14       -31.9016   23.2444   63.7788 H         1 <0>         0.0600 
     42 H15       -31.5923   22.6247   65.4009 H         1 <0>         0.0600 
     43 H16       -34.1789   27.1086   61.0278 H         1 <0>         0.0600 
     44 H17       -33.2453   27.6986   59.6744 H         1 <0>         0.0600 
     45 H18       -32.4343   29.6204   61.0539 H         1 <0>         0.0600 
     46 H19       -33.3927   29.0662   62.4059 H         1 <0>         0.0600 
     47 H20       -31.2339   28.2315   62.8896 H         1 <0>         0.0600 
     48 H21       -32.0765   26.8436   62.2455 H         1 <0>         0.0600 
     49 H22       -31.0157   27.1993   60.0166 H         1 <0>         0.0600 
     50 H23       -30.2912   28.6776   60.5790 H         1 <0>         0.0600 
     51 H24       -32.6027   24.8866   68.0886 H         1 <0>         0.0600 
     52 H25       -32.3467   26.4435   67.3432 H         1 <0>         0.0600 
     53 H26       -27.8395   25.6232   60.4212 H         1 <0>         0.0600 
     54 H27       -29.1387   26.0904   59.3588 H         1 <0>         0.0600 
     55 H28       -33.8472   25.8074   65.4570 H         1 <0>         0.0600 
     56 H29       -28.9383   23.8373   66.3167 H         1 <0>         0.0600 
     57 H30       -28.7372   27.5960   61.9664 H         1 <0>         0.0600 
     58 H31       -30.0060   23.8921   64.1405 H         1 <0>         0.0600 
     59 H32       -28.5510   26.3756   63.7333 H         1 <0>         0.3000 
     60 H33       -28.3076   27.2302   57.5689 H         1 <0>         0.3000 
     61 H34       -34.8578   25.4216   68.1191 H         1 <0>         0.4180 
     62 H35       -27.0730   28.6926   56.7472 H         1 <0>         0.3619 
@<TRIPOS>BOND
     1    1    7 1    
     2    1   28 1    
     3    1   29 1    
     4    1   30 1    
     5    2   14 1    
     6    2   31 1    
     7    2   32 1    
     8    2   33 1    
     9    3   14 1    
    10    3   34 1    
    11    3   35 1    
    12    3   36 1    
    13    4    5 1    
    14    4    6 1    
    15    4   37 1    
    16    4   38 1    
    17    5   13 1    
    18    5   39 1    
    19    5   40 1    
    20    6   22 1    
    21    6   41 1    
    22    6   42 1    
    23    7    8 1    
    24    7   43 1    
    25    7   44 1    
    26    8    9 1    
    27    8   45 1    
    28    8   46 1    
    29    9   10 1    
    30    9   47 1    
    31    9   48 1    
    32   10   15 1    
    33   10   49 1    
    34   10   50 1    
    35   11   13 1    
    36   11   23 1    
    37   11   51 1    
    38   11   52 1    
    39   12   15 1    
    40   12   17 1    
    41   12   53 1    
    42   12   54 1    
    43   13   22 1    
    44   13   55 1    
    45   14   16 1    
    46   14   56 1    
    47   15   18 1    
    48   15   57 1    
    49   16   19 1    
    50   16   20 1    
    51   16   58 1    
    52   17   21 am   BACKBONE|DICT|INTERRES
    53   17   25 2    
    54   18   20 am   BACKBONE|DICT|INTERRES
    55   18   26 2    
    56   19   22 am   BACKBONE|DICT|INTERRES
    57   19   27 2    
    58   20   59 1    
    59   21   24 1    
    60   21   60 1    
    61   23   61 1    
    62   24   62 1    
@<TRIPOS>SUBSTRUCTURE
     1 <0>         1 GROUP             0       ****    0 ROOT    
@<TRIPOS>MOLECULE
BB2_501_1LRU
62   62    1
SMALL
USER_CHARGES


@<TRIPOS>ATOM
      1 C1        -35.1464   28.9178   60.1834 C.3       1 <0>        -0.1800 
      2 C2        -27.8840   26.0769   65.9216 C.3       1 <0>        -0.1800 
      3 C3        -27.4532   23.8534   64.7898 C.3       1 <0>        -0.1800 
      4 C4        -33.6035   22.8286   64.9197 C.3       1 <0>        -0.1200 
      5 C5        -34.0951   23.5951   66.1434 C.3       1 <0>        -0.1200 
      6 C6        -32.1546   23.2896   64.7434 C.3       1 <0>        -0.0500 
      7 C7        -33.8832   28.1030   60.4824 C.3       1 <0>        -0.1200 
      8 C8        -32.9698   28.7874   61.5094 C.3       1 <0>        -0.1200 
      9 C9        -31.7871   27.9019   61.9266 C.3       1 <0>        -0.1200 
     10 C10       -30.7943   27.6628   60.7731 C.3       1 <0>        -0.1200 
     11 C11       -33.0116   25.4291   67.5065 C.3       1 <0>         0.1450 
     12 C12       -28.6559   26.5414   59.9599 C.3       1 <0>        -0.1200 
     13 C13       -33.3125   24.9100   66.1034 C.3       1 <0>         0.0100 
     14 C14       -28.5196   24.7648   65.4212 C.3       1 <0>        -0.0600 
     15 C15       -29.4778   26.9733   61.2000 C.3       1 <0>        -0.0600 
     16 C16       -29.7488   24.9843   64.4919 C.3       1 <0>         0.1400 
     17 C17       -27.7733   27.6595   59.3898 C.2       1 <0>         0.5000 
     18 C18       -29.7513   25.7629   62.1086 C.2       1 <0>         0.5000 
     19 C19       -31.0145   25.4630   65.2346 C.2       1 <0>         0.5000 
     20 N1        -29.4301   25.9078   63.4016 N.am      1 <0>        -0.5000 
     21 N2        -27.8089   27.8337   58.0615 N.am      1 <0>        -0.2244 
     22 N3        -32.0932   24.6111   65.3578 N.am      1 <0>        -0.1400 
     23 O1        -34.1532   25.9952   68.1193 O.3       1 <0>        -0.6830 
     24 O2        -26.6537   28.4231   57.5056 O.3       1 <0>        -0.4375 
     25 O3        -27.0400   28.3111   60.1350 O.2       1 <0>        -0.5000 
     26 O4        -30.2234   24.7280   61.6385 O.2       1 <0>        -0.5000 
     27 O5        -31.0246   26.5977   65.7177 O.2       1 <0>        -0.5000 
     28 H1        -35.7737   28.4075   59.4522 H         1 <0>         0.0600 
     29 H2        -34.8959   29.8990   59.7792 H         1 <0>         0.0600 
     30 H3        -35.7413   29.0676   61.0848 H         1 <0>         0.0600 
     31 H4        -27.4633   26.6598   65.1019 H         1 <0>         0.0600 
     32 H5        -28.6112   26.7043   66.4372 H         1 <0>         0.0600 
     33 H6        -27.0763   25.8745   66.6253 H         1 <0>         0.0600 
     34 H7        -26.9787   24.3234   63.9292 H         1 <0>         0.0600 
     35 H8        -26.6663   23.6171   65.5065 H         1 <0>         0.0600 
     36 H9        -27.8868   22.9101   64.4569 H         1 <0>         0.0600 
     37 H10       -34.1889   23.1189   64.0473 H         1 <0>         0.0600 
     38 H11       -33.6925   21.7481   65.0324 H         1 <0>         0.0600 
     39 H12       -35.1747   23.7458   66.1438 H         1 <0>         0.0600 
     40 H13       -33.8381   23.0435   67.0477 H         1 <0>         0.0600 
     41 H14       -31.8655   23.3122   63.6927 H         1 <0>         0.0600 
     42 H15       -31.4705   22.6217   65.2668 H         1 <0>         0.0600 
     43 H16       -34.1706   27.1164   60.8478 H         1 <0>         0.0600 
     44 H17       -33.3336   27.9400   59.5545 H         1 <0>         0.0600 
     45 H18       -32.5929   29.7225   61.0929 H         1 <0>         0.0600 
     46 H19       -33.5528   29.0550   62.3916 H         1 <0>         0.0600 
     47 H20       -31.2647   28.3670   62.7635 H         1 <0>         0.0600 
     48 H21       -32.1712   26.9496   62.2940 H         1 <0>         0.0600 
     49 H22       -31.2806   27.0809   59.9884 H         1 <0>         0.0600 
     50 H23       -30.5548   28.6264   60.3219 H         1 <0>         0.0600 
     51 H24       -32.6172   24.6414   68.1484 H         1 <0>         0.0600 
     52 H25       -32.2394   26.1972   67.4541 H         1 <0>         0.0600 
     53 H26       -28.0488   25.6648   60.1937 H         1 <0>         0.0600 
     54 H27       -29.3322   26.2335   59.1621 H         1 <0>         0.0600 
     55 H28       -33.8736   25.6792   65.5728 H         1 <0>         0.0600 
     56 H29       -28.8740   24.2384   66.3081 H         1 <0>         0.0600 
     57 H30       -28.8967   27.7079   61.7611 H         1 <0>         0.0600 
     58 H31       -29.9969   24.0274   64.0328 H         1 <0>         0.0600 
     59 H32       -28.9158   26.7354   63.6683 H         1 <0>         0.3000 
     60 H33       -28.2748   27.2431   57.3873 H         1 <0>         0.3000 
     61 H34       -34.8432   25.3492   68.1254 H         1 <0>         0.4180 
     62 H35       -26.9433   28.6798   56.6411 H         1 <0>         0.3619 
@<TRIPOS>BOND
     1    1    7 1    
     2    1   28 1    
     3    1   29 1    
     4    1   30 1    
     5    2   14 1    
     6    2   31 1    
     7    2   32 1    
     8    2   33 1    
     9    3   14 1    
    10    3   34 1    
    11    3   35 1    
    12    3   36 1    
    13    4    5 1    
    14    4    6 1    
    15    4   37 1    
    16    4   38 1    
    17    5   13 1    
    18    5   39 1    
    19    5   40 1    
    20    6   22 1    
    21    6   41 1    
    22    6   42 1    
    23    7    8 1    
    24    7   43 1    
    25    7   44 1    
    26    8    9 1    
    27    8   45 1    
    28    8   46 1    
    29    9   10 1    
    30    9   47 1    
    31    9   48 1    
    32   10   15 1    
    33   10   49 1    
    34   10   50 1    
    35   11   13 1    
    36   11   23 1    
    37   11   51 1    
    38   11   52 1    
    39   12   15 1    
    40   12   17 1    
    41   12   53 1    
    42   12   54 1    
    43   13   22 1    
    44   13   55 1    
    45   14   16 1    
    46   14   56 1    
    47   15   18 1    
    48   15   57 1    
    49   16   19 1    
    50   16   20 1    
    51   16   58 1    
    52   17   21 am   BACKBONE|DICT|INTERRES
    53   17   25 2    
    54   18   20 am   BACKBONE|DICT|INTERRES
    55   18   26 2    
    56   19   22 am   BACKBONE|DICT|INTERRES
    57   19   27 2    
    58   20   59 1    
    59   21   24 1    
    60   21   60 1    
    61   23   61 1    
    62   24   62 1    
@<TRIPOS>SUBSTRUCTURE
     1 <0>         1 GROUP             0       ****    0 ROOT    
@<TRIPOS>MOLECULE
BB2_501_1LRU
62   62    1
SMALL
USER_CHARGES


@<TRIPOS>ATOM
      1 C1        -35.0203   28.9537   60.1590 C.3       1 <0>        -0.1800 
      2 C2        -28.1588   26.0092   66.1451 C.3       1 <0>        -0.1800 
      3 C3        -27.7482   23.8482   64.9207 C.3       1 <0>        -0.1800 
      4 C4        -33.8087   23.1730   65.6520 C.3       1 <0>        -0.1200 
      5 C5        -34.2195   24.2140   66.6739 C.3       1 <0>        -0.1200 
      6 C6        -32.3850   23.5670   65.2718 C.3       1 <0>        -0.0500 
      7 C7        -33.9032   27.9898   60.5650 C.3       1 <0>        -0.1200 
      8 C8        -32.9043   28.6637   61.5134 C.3       1 <0>        -0.1200 
      9 C9        -31.7156   27.7807   61.9073 C.3       1 <0>        -0.1200 
     10 C10       -30.6711   27.5881   60.7819 C.3       1 <0>        -0.1200 
     11 C11       -33.1695   26.3770   67.5063 C.3       1 <0>         0.1450 
     12 C12       -28.4107   26.5855   60.0649 C.3       1 <0>        -0.1200 
     13 C13       -33.4438   25.4797   66.2785 C.3       1 <0>         0.0100 
     14 C14       -28.8230   24.7675   65.5282 C.3       1 <0>        -0.0600 
     15 C15       -29.3254   26.9724   61.2486 C.3       1 <0>        -0.0600 
     16 C16       -29.9569   25.0672   64.5081 C.3       1 <0>         0.1400 
     17 C17       -27.7007   27.7647   59.3971 C.2       1 <0>         0.5000 
     18 C18       -29.5572   25.7519   62.1471 C.2       1 <0>         0.5000 
     19 C19       -31.1830   25.7419   65.1781 C.2       1 <0>         0.5000 
     20 N1        -29.4639   25.9649   63.4678 N.am      1 <0>        -0.5000 
     21 N2        -27.7700   27.8235   58.0622 N.am      1 <0>        -0.2244 
     22 N3        -32.2350   24.9901   65.5842 N.am      1 <0>        -0.1400 
     23 O1        -34.3732   26.8231   68.0976 O.3       1 <0>        -0.6830 
     24 O2        -26.6183   28.3609   57.4533 O.3       1 <0>        -0.4375 
     25 O3        -27.0105   28.5411   60.0581 O.2       1 <0>        -0.5000 
     26 O4        -29.8650   24.6668   61.6523 O.2       1 <0>        -0.5000 
     27 O5        -31.1622   26.9660   65.3209 O.2       1 <0>        -0.5000 
     28 H1        -35.7133   28.4922   59.4600 H         1 <0>         0.0600 
     29 H2        -34.6097   29.8245   59.6606 H         1 <0>         0.0600 
     30 H3        -35.5853   29.2907   61.0286 H         1 <0>         0.0600 
     31 H4        -27.6617   26.6214   65.3956 H         1 <0>         0.0600 
     32 H5        -28.8947   26.6231   66.6531 H         1 <0>         0.0600 
     33 H6        -27.4099   25.7262   66.8843 H         1 <0>         0.0600 
     34 H7        -27.2263   24.3337   64.0956 H         1 <0>         0.0600 
     35 H8        -27.0036   23.5676   65.6659 H         1 <0>         0.0600 
     36 H9        -28.1874   22.9277   64.5373 H         1 <0>         0.0600 
     37 H10       -34.4552   23.2407   64.7767 H         1 <0>         0.0600 
     38 H11       -33.8730   22.1545   66.0333 H         1 <0>         0.0600 
     39 H12       -35.2998   24.3715   66.6974 H         1 <0>         0.0600 
     40 H13       -33.9169   23.8787   67.6674 H         1 <0>         0.0600 
     41 H14       -32.2251   23.3477   64.2161 H         1 <0>         0.0600 
     42 H15       -31.6415   23.0266   65.8530 H         1 <0>         0.0600 
     43 H16       -34.3266   27.1107   61.0522 H         1 <0>         0.0600 
     44 H17       -33.3901   27.6412   59.6689 H         1 <0>         0.0600 
     45 H18       -32.5309   29.5806   61.0655 H         1 <0>         0.0600 
     46 H19       -33.4338   28.9620   62.4210 H         1 <0>         0.0600 
     47 H20       -31.2217   28.2237   62.7710 H         1 <0>         0.0600 
     48 H21       -32.0931   26.8192   62.2556 H         1 <0>         0.0600 
     49 H22       -31.1051   26.9745   59.9916 H         1 <0>         0.0600 
     50 H23       -30.4620   28.5574   60.3274 H         1 <0>         0.0600 
     51 H24       -32.5966   25.8232   68.2506 H         1 <0>         0.0600 
     52 H25       -32.6094   27.2717   67.2502 H         1 <0>         0.0600 
     53 H26       -27.6248   25.9099   60.4021 H         1 <0>         0.0600 
     54 H27       -28.9840   26.0275   59.3262 H         1 <0>         0.0600 
     55 H28       -34.0267   26.0384   65.5417 H         1 <0>         0.0600 
     56 H29       -29.2753   24.2235   66.3576 H         1 <0>         0.0600 
     57 H30       -28.8130   27.7192   61.8580 H         1 <0>         0.0600 
     58 H31       -30.2402   24.1217   64.0523 H         1 <0>         0.0600 
     59 H32       -29.2406   26.9021   63.7748 H         1 <0>         0.3000 
     60 H33       -28.1606   27.0850   57.4813 H         1 <0>         0.3000 
     61 H34       -34.8956   27.2380   67.4262 H         1 <0>         0.4180 
     62 H35       -26.0941   28.6220   58.1989 H         1 <0>         0.3619 
@<TRIPOS>BOND
     1    1    7 1    
     2    1   28 1    
     3    1   29 1    
     4    1   30 1    
     5    2   14 1    
     6    2   31 1    
     7    2   32 1    
     8    2   33 1    
     9    3   14 1    
    10    3   34 1    
    11    3   35 1    
    12    3   36 1    
    13    4    5 1    
    14    4    6 1    
    15    4   37 1    
    16    4   38 1    
    17    5   13 1    
    18    5   39 1    
    19    5   40 1    
    20    6   22 1    
    21    6   41 1    
    22    6   42 1    
    23    7    8 1    
    24    7   43 1    
    25    7   44 1    
    26    8    9 1    
    27    8   45 1    
    28    8   46 1    
    29    9   10 1    
    30    9   47 1    
    31    9   48 1    
    32   10   15 1    
    33   10   49 1    
    34   10   50 1    
    35   11   13 1    
    36   11   23 1    
    37   11   51 1    
    38   11   52 1    
    39   12   15 1    
    40   12   17 1    
    41   12   53 1    
    42   12   54 1    
    43   13   22 1    
    44   13   55 1    
    45   14   16 1    
    46   14   56 1    
    47   15   18 1    
    48   15   57 1    
    49   16   19 1    
    50   16   20 1    
    51   16   58 1    
    52   17   21 am   BACKBONE|DICT|INTERRES
    53   17   25 2    
    54   18   20 am   BACKBONE|DICT|INTERRES
    55   18   26 2    
    56   19   22 am   BACKBONE|DICT|INTERRES
    57   19   27 2    
    58   20   59 1    
    59   21   24 1    
    60   21   60 1    
    61   23   61 1    
    62   24   62 1    
@<TRIPOS>SUBSTRUCTURE
     1 <0>         1 GROUP             0       ****    0 ROOT    
@<TRIPOS>MOLECULE
BB2_501_1LRU
62   62    1
SMALL
USER_CHARGES


@<TRIPOS>ATOM
      1 C1        -35.0499   28.9978   60.4413 C.3       1 <0>        -0.1800 
      2 C2        -28.1686   26.0141   66.1512 C.3       1 <0>        -0.1800 
      3 C3        -27.7271   23.8215   64.9869 C.3       1 <0>        -0.1800 
      4 C4        -33.8908   23.0513   65.3473 C.3       1 <0>        -0.1200 
      5 C5        -34.2632   23.9521   66.5113 C.3       1 <0>        -0.1200 
      6 C6        -32.4601   23.4593   65.0039 C.3       1 <0>        -0.0500 
      7 C7        -33.9150   28.4652   61.3195 C.3       1 <0>        -0.1200 
      8 C8        -32.7316   27.9776   60.4756 C.3       1 <0>        -0.1200 
      9 C9        -31.5635   27.4600   61.3171 C.3       1 <0>        -0.1200 
     10 C10       -30.3536   27.0707   60.4487 C.3       1 <0>        -0.1200 
     11 C11       -33.1807   25.9973   67.5957 C.3       1 <0>         0.1450 
     12 C12       -27.8796   26.4049   60.3352 C.3       1 <0>        -0.1200 
     13 C13       -33.4697   25.2425   66.2727 C.3       1 <0>         0.0100 
     14 C14       -28.8085   24.7426   65.5733 C.3       1 <0>        -0.0600 
     15 C15       -29.0735   26.7404   61.2534 C.3       1 <0>        -0.0600 
     16 C16       -29.9584   25.0090   64.5647 C.3       1 <0>         0.1400 
     17 C17       -27.4084   27.5928   59.5028 C.2       1 <0>         0.5000 
     18 C18       -29.3223   25.5800   62.2228 C.2       1 <0>         0.5000 
     19 C19       -31.2187   25.6132   65.2229 C.2       1 <0>         0.5000 
     20 N1        -29.5204   25.9131   63.5033 N.am      1 <0>        -0.5000 
     21 N2        -27.4092   27.4234   58.1787 N.am      1 <0>        -0.2244 
     22 N3        -32.2679   24.8147   65.5338 N.am      1 <0>        -0.1400 
     23 O1        -34.3837   26.3353   68.2551 O.3       1 <0>        -0.6830 
     24 O2        -26.6110   28.3153   57.4519 O.3       1 <0>        -0.4375 
     25 O3        -27.0087   28.6231   60.0421 O.2       1 <0>        -0.5000 
     26 O4        -29.3739   24.4216   61.8101 O.2       1 <0>        -0.5000 
     27 O5        -31.2213   26.8223   65.4525 O.2       1 <0>        -0.5000 
     28 H1        -35.8936   29.3458   61.0409 H         1 <0>         0.0600 
     29 H2        -35.4089   28.2240   59.7681 H         1 <0>         0.0600 
     30 H3        -34.7090   29.8234   59.8261 H         1 <0>         0.0600 
     31 H4        -27.6939   26.6214   65.3806 H         1 <0>         0.0600 
     32 H5        -28.9122   26.6214   66.6531 H         1 <0>         0.0600 
     33 H6        -27.4095   25.7658   66.8897 H         1 <0>         0.0600 
     34 H7        -27.1856   24.3044   64.1737 H         1 <0>         0.0600 
     35 H8        -27.0015   23.5309   65.7455 H         1 <0>         0.0600 
     36 H9        -28.1644   22.9040   64.5922 H         1 <0>         0.0600 
     37 H10       -34.5458   23.2585   64.4964 H         1 <0>         0.0600 
     38 H11       -33.9833   21.9874   65.5802 H         1 <0>         0.0600 
     39 H12       -35.3384   24.1192   66.5773 H         1 <0>         0.0600 
     40 H13       -33.9402   23.4775   67.4378 H         1 <0>         0.0600 
     41 H14       -32.3214   23.4290   63.9225 H         1 <0>         0.0600 
     42 H15       -31.7404   22.7808   65.4528 H         1 <0>         0.0600 
     43 H16       -33.5886   29.2476   62.0021 H         1 <0>         0.0600 
     44 H17       -34.2876   27.6495   61.9389 H         1 <0>         0.0600 
     45 H18       -33.0657   27.1898   59.7995 H         1 <0>         0.0600 
     46 H19       -32.3771   28.7942   59.8485 H         1 <0>         0.0600 
     47 H20       -31.2639   28.2243   62.0348 H         1 <0>         0.0600 
     48 H21       -31.9004   26.6055   61.9038 H         1 <0>         0.0600 
     49 H22       -30.6153   26.2294   59.8041 H         1 <0>         0.0600 
     50 H23       -30.1392   27.9048   59.7800 H         1 <0>         0.0600 
     51 H24       -32.5751   25.3824   68.2614 H         1 <0>         0.0600 
     52 H25       -32.6416   26.9312   67.4369 H         1 <0>         0.0600 
     53 H26       -27.0308   26.0670   60.9302 H         1 <0>         0.0600 
     54 H27       -28.1378   25.5734   59.6774 H         1 <0>         0.0600 
     55 H28       -34.0379   25.8936   65.6039 H         1 <0>         0.0600 
     56 H29       -29.2507   24.2230   66.4258 H         1 <0>         0.0600 
     57 H30       -28.8070   27.6169   61.8495 H         1 <0>         0.0600 
     58 H31       -30.2059   24.0487   64.1149 H         1 <0>         0.0600 
     59 H32       -29.4907   26.8904   63.7529 H         1 <0>         0.3000 
     60 H33       -27.6791   26.6122   57.6311 H         1 <0>         0.3000 
     61 H34       -34.8773   25.5394   68.3941 H         1 <0>         0.4180 
     62 H35       -26.3128   28.9157   58.1220 H         1 <0>         0.3619 
@<TRIPOS>BOND
     1    1    7 1    
     2    1   28 1    
     3    1   29 1    
     4    1   30 1    
     5    2   14 1    
     6    2   31 1    
     7    2   32 1    
     8    2   33 1    
     9    3   14 1    
    10    3   34 1    
    11    3   35 1    
    12    3   36 1    
    13    4    5 1    
    14    4    6 1    
    15    4   37 1    
    16    4   38 1    
    17    5   13 1    
    18    5   39 1    
    19    5   40 1    
    20    6   22 1    
    21    6   41 1    
    22    6   42 1    
    23    7    8 1    
    24    7   43 1    
    25    7   44 1    
    26    8    9 1    
    27    8   45 1    
    28    8   46 1    
    29    9   10 1    
    30    9   47 1    
    31    9   48 1    
    32   10   15 1    
    33   10   49 1    
    34   10   50 1    
    35   11   13 1    
    36   11   23 1    
    37   11   51 1    
    38   11   52 1    
    39   12   15 1    
    40   12   17 1    
    41   12   53 1    
    42   12   54 1    
    43   13   22 1    
    44   13   55 1    
    45   14   16 1    
    46   14   56 1    
    47   15   18 1    
    48   15   57 1    
    49   16   19 1    
    50   16   20 1    
    51   16   58 1    
    52   17   21 am   BACKBONE|DICT|INTERRES
    53   17   25 2    
    54   18   20 am   BACKBONE|DICT|INTERRES
    55   18   26 2    
    56   19   22 am   BACKBONE|DICT|INTERRES
    57   19   27 2    
    58   20   59 1    
    59   21   24 1    
    60   21   60 1    
    61   23   61 1    
    62   24   62 1    
@<TRIPOS>SUBSTRUCTURE
     1 <0>         1 GROUP             0       ****    0 ROOT    
@<TRIPOS>MOLECULE
BB2_501_1LRU
62   62    1
SMALL
USER_CHARGES


@<TRIPOS>ATOM
      1 C1        -35.1795   28.8135   60.2515 C.3       1 <0>        -0.1800 
      2 C2        -28.1614   26.1225   66.1919 C.3       1 <0>        -0.1800 
      3 C3        -27.3568   24.0724   64.9428 C.3       1 <0>        -0.1800 
      4 C4        -33.5961   22.7606   64.5320 C.3       1 <0>        -0.1200 
      5 C5        -34.2221   23.5212   65.6966 C.3       1 <0>        -0.1200 
      6 C6        -32.1395   23.2305   64.5145 C.3       1 <0>        -0.0500 
      7 C7        -33.9038   28.0143   60.5391 C.3       1 <0>        -0.1200 
      8 C8        -33.0043   28.6947   61.5809 C.3       1 <0>        -0.1200 
      9 C9        -31.7998   27.8278   61.9736 C.3       1 <0>        -0.1200 
     10 C10       -30.7474   27.7384   60.8521 C.3       1 <0>        -0.1200 
     11 C11       -33.3037   25.3580   67.1725 C.3       1 <0>         0.1450 
     12 C12       -28.6505   26.5692   59.9989 C.3       1 <0>        -0.1200 
     13 C13       -33.4477   24.8407   65.7441 C.3       1 <0>         0.0100 
     14 C14       -28.5810   24.7943   65.5317 C.3       1 <0>        -0.0600 
     15 C15       -29.4511   26.9976   61.2541 C.3       1 <0>        -0.0600 
     16 C16       -29.7390   24.9498   64.5033 C.3       1 <0>         0.1400 
     17 C17       -27.7888   27.6931   59.4085 C.2       1 <0>         0.5000 
     18 C18       -29.7577   25.7754   62.1359 C.2       1 <0>         0.5000 
     19 C19       -31.0726   25.4092   65.1304 C.2       1 <0>         0.5000 
     20 N1        -29.3620   25.8524   63.4140 N.am      1 <0>        -0.5000 
     21 N2        -27.8102   27.8284   58.0754 N.am      1 <0>        -0.2244 
     22 N3        -32.1530   24.5508   65.1344 N.am      1 <0>        -0.1400 
     23 O1        -34.5348   25.8118   67.6995 O.3       1 <0>        -0.6830 
     24 O2        -26.6945   28.4942   57.5249 O.3       1 <0>        -0.4375 
     25 O3        -27.0829   28.3844   60.1443 O.2       1 <0>        -0.5000 
     26 O4        -30.3209   24.7908   61.6580 O.2       1 <0>        -0.5000 
     27 O5        -31.1353   26.5347   65.6310 O.2       1 <0>        -0.5000 
     28 H1        -35.7965   28.3065   59.5094 H         1 <0>         0.0600 
     29 H2        -34.9442   29.8060   59.8660 H         1 <0>         0.0600 
     30 H3        -35.7790   28.9371   61.1538 H         1 <0>         0.0600 
     31 H4        -27.7442   26.8201   65.4654 H         1 <0>         0.0600 
     32 H5        -29.0046   26.6131   66.6783 H         1 <0>         0.0600 
     33 H6        -27.4017   25.9545   66.9555 H         1 <0>         0.0600 
     34 H7        -26.8687   24.6682   64.1724 H         1 <0>         0.0600 
     35 H8        -26.6147   23.8674   65.7146 H         1 <0>         0.0600 
     36 H9        -27.6379   23.1178   64.4971 H         1 <0>         0.0600 
     37 H10       -34.0854   23.0497   63.6018 H         1 <0>         0.0600 
     38 H11       -33.6902   21.6793   64.6324 H         1 <0>         0.0600 
     39 H12       -35.2962   23.6655   65.5803 H         1 <0>         0.0600 
     40 H13       -34.0612   22.9688   66.6224 H         1 <0>         0.0600 
     41 H14       -31.7385   23.2574   63.5013 H         1 <0>         0.0600 
     42 H15       -31.5121   22.5653   65.1077 H         1 <0>         0.0600 
     43 H16       -34.1759   27.0166   60.8856 H         1 <0>         0.0600 
     44 H17       -33.3493   27.8773   59.6099 H         1 <0>         0.0600 
     45 H18       -32.6509   29.6486   61.1870 H         1 <0>         0.0600 
     46 H19       -33.5913   28.9263   62.4707 H         1 <0>         0.0600 
     47 H20       -31.3372   28.2373   62.8725 H         1 <0>         0.0600 
     48 H21       -32.1533   26.8300   62.2362 H         1 <0>         0.0600 
     49 H22       -31.1894   27.2635   59.9745 H         1 <0>         0.0600 
     50 H23       -30.4901   28.7519   60.5421 H         1 <0>         0.0600 
     51 H24       -32.8929   24.5958   67.8345 H         1 <0>         0.0600 
     52 H25       -32.6002   26.1909   67.1902 H         1 <0>         0.0600 
     53 H26       -28.0317   25.6983   60.2226 H         1 <0>         0.0600 
     54 H27       -29.3401   26.2537   59.2154 H         1 <0>         0.0600 
     55 H28       -33.9527   25.6079   65.1573 H         1 <0>         0.0600 
     56 H29       -28.9459   24.1543   66.3358 H         1 <0>         0.0600 
     57 H30       -28.8436   27.6999   61.8284 H         1 <0>         0.0600 
     58 H31       -29.9224   23.9734   64.0551 H         1 <0>         0.0600 
     59 H32       -28.7401   26.6065   63.6689 H         1 <0>         0.3000 
     60 H33       -28.2128   27.1843   57.4095 H         1 <0>         0.3000 
     61 H34       -35.1669   25.1121   67.6331 H         1 <0>         0.4180 
     62 H35       -26.9622   28.6493   56.6298 H         1 <0>         0.3619 
@<TRIPOS>BOND
     1    1    7 1    
     2    1   28 1    
     3    1   29 1    
     4    1   30 1    
     5    2   14 1    
     6    2   31 1    
     7    2   32 1    
     8    2   33 1    
     9    3   14 1    
    10    3   34 1    
    11    3   35 1    
    12    3   36 1    
    13    4    5 1    
    14    4    6 1    
    15    4   37 1    
    16    4   38 1    
    17    5   13 1    
    18    5   39 1    
    19    5   40 1    
    20    6   22 1    
    21    6   41 1    
    22    6   42 1    
    23    7    8 1    
    24    7   43 1    
    25    7   44 1    
    26    8    9 1    
    27    8   45 1    
    28    8   46 1    
    29    9   10 1    
    30    9   47 1    
    31    9   48 1    
    32   10   15 1    
    33   10   49 1    
    34   10   50 1    
    35   11   13 1    
    36   11   23 1    
    37   11   51 1    
    38   11   52 1    
    39   12   15 1    
    40   12   17 1    
    41   12   53 1    
    42   12   54 1    
    43   13   22 1    
    44   13   55 1    
    45   14   16 1    
    46   14   56 1    
    47   15   18 1    
    48   15   57 1    
    49   16   19 1    
    50   16   20 1    
    51   16   58 1    
    52   17   21 am   BACKBONE|DICT|INTERRES
    53   17   25 2    
    54   18   20 am   BACKBONE|DICT|INTERRES
    55   18   26 2    
    56   19   22 am   BACKBONE|DICT|INTERRES
    57   19   27 2    
    58   20   59 1    
    59   21   24 1    
    60   21   60 1    
    61   23   61 1    
    62   24   62 1    
@<TRIPOS>SUBSTRUCTURE
     1 <0>         1 GROUP             0       ****    0 ROOT    
@<TRIPOS>MOLECULE
BB2_501_1LRU
62   62    1
SMALL
USER_CHARGES


@<TRIPOS>ATOM
      1 C1        -34.9295   28.8507   60.1368 C.3       1 <0>        -0.1800 
      2 C2        -28.1653   26.0175   66.2059 C.3       1 <0>        -0.1800 
      3 C3        -27.6791   23.8232   65.0667 C.3       1 <0>        -0.1800 
      4 C4        -33.7520   23.1107   65.8034 C.3       1 <0>        -0.1200 
      5 C5        -34.2041   24.2171   66.7361 C.3       1 <0>        -0.1200 
      6 C6        -32.3236   23.4962   65.4311 C.3       1 <0>        -0.0500 
      7 C7        -33.7512   27.9203   60.4516 C.3       1 <0>        -0.1200 
      8 C8        -32.6675   28.6236   61.2820 C.3       1 <0>        -0.1200 
      9 C9        -31.5415   27.7100   61.7726 C.3       1 <0>        -0.1200 
     10 C10       -30.4996   27.3472   60.6913 C.3       1 <0>        -0.1200 
     11 C11       -33.1717   26.4233   67.4653 C.3       1 <0>         0.1450 
     12 C12       -28.2138   26.2708   60.1708 C.3       1 <0>        -0.1200 
     13 C13       -33.4222   25.4585   66.2825 C.3       1 <0>         0.0100 
     14 C14       -28.7829   24.7377   65.6273 C.3       1 <0>        -0.0600 
     15 C15       -29.1979   26.7330   61.2655 C.3       1 <0>        -0.0600 
     16 C16       -29.9071   24.9712   64.5836 C.3       1 <0>         0.1400 
     17 C17       -27.4270   27.4074   59.5189 C.2       1 <0>         0.5000 
     18 C18       -29.5123   25.5636   62.2041 C.2       1 <0>         0.5000 
     19 C19       -31.1532   25.6752   65.1945 C.2       1 <0>         0.5000 
     20 N1        -29.3975   25.8196   63.5131 N.am      1 <0>        -0.5000 
     21 N2        -27.4082   27.4238   58.1844 N.am      1 <0>        -0.2244 
     22 N3        -32.1987   24.9385   65.6369 N.am      1 <0>        -0.1400 
     23 O1        -34.3866   26.8947   68.0144 O.3       1 <0>        -0.6830 
     24 O2        -26.2268   27.9543   57.6355 O.3       1 <0>        -0.4375 
     25 O3        -26.7660   28.1878   60.2039 O.2       1 <0>        -0.5000 
     26 O4        -29.8859   24.4837   61.7469 O.2       1 <0>        -0.5000 
     27 O5        -31.1544   26.9061   65.2581 O.2       1 <0>        -0.5000 
     28 H1        -35.6295   28.3749   59.4550 H         1 <0>         0.0600 
     29 H2        -34.6094   29.7725   59.6546 H         1 <0>         0.0600 
     30 H3        -35.4730   29.1186   61.0419 H         1 <0>         0.0600 
     31 H4        -27.6623   26.6215   65.4524 H         1 <0>         0.0600 
     32 H5        -28.9440   26.6234   66.6556 H         1 <0>         0.0600 
     33 H6        -27.4395   25.7922   66.9866 H         1 <0>         0.0600 
     34 H7        -27.1178   24.3186   64.2738 H         1 <0>         0.0600 
     35 H8        -26.9732   23.5374   65.8473 H         1 <0>         0.0600 
     36 H9        -28.0941   22.9030   64.6534 H         1 <0>         0.0600 
     37 H10       -34.3718   23.1111   64.9058 H         1 <0>         0.0600 
     38 H11       -33.8253   22.1189   66.2511 H         1 <0>         0.0600 
     39 H12       -35.2840   24.3689   66.7114 H         1 <0>         0.0600 
     40 H13       -33.9338   23.9538   67.7596 H         1 <0>         0.0600 
     41 H14       -32.1347   23.1992   64.3980 H         1 <0>         0.0600 
     42 H15       -31.5833   23.0248   66.0727 H         1 <0>         0.0600 
     43 H16       -34.1204   27.0463   60.9908 H         1 <0>         0.0600 
     44 H17       -33.3235   27.5483   59.5219 H         1 <0>         0.0600 
     45 H18       -32.2174   29.4233   60.7051 H         1 <0>         0.0600 
     46 H19       -33.1407   29.0834   62.1489 H         1 <0>         0.0600 
     47 H20       -31.0277   28.2233   62.5863 H         1 <0>         0.0600 
     48 H21       -31.9761   26.8143   62.2152 H         1 <0>         0.0600 
     49 H22       -30.9497   26.6683   59.9667 H         1 <0>         0.0600 
     50 H23       -30.2358   28.2489   60.1394 H         1 <0>         0.0600 
     51 H24       -32.6103   25.9157   68.2503 H         1 <0>         0.0600 
     52 H25       -32.6091   27.3043   67.1657 H         1 <0>         0.0600 
     53 H26       -27.4718   25.5918   60.5963 H         1 <0>         0.0600 
     54 H27       -28.7483   25.6913   59.4182 H         1 <0>         0.0600 
     55 H28       -33.9892   25.9713   65.5026 H         1 <0>         0.0600 
     56 H29       -29.2352   24.2235   66.4731 H         1 <0>         0.0600 
     57 H30       -28.7106   27.5025   61.8652 H         1 <0>         0.0600 
     58 H31       -30.1767   24.0035   64.1689 H         1 <0>         0.0600 
     59 H32       -29.1195   26.7498   63.7874 H         1 <0>         0.3000 
     60 H33       -27.8003   26.7080   57.5806 H         1 <0>         0.3000 
     61 H34       -34.8790   27.3108   67.3220 H         1 <0>         0.4180 
     62 H35       -25.7709   28.2663   58.4051 H         1 <0>         0.3619 
@<TRIPOS>BOND
     1    1    7 1    
     2    1   28 1    
     3    1   29 1    
     4    1   30 1    
     5    2   14 1    
     6    2   31 1    
     7    2   32 1    
     8    2   33 1    
     9    3   14 1    
    10    3   34 1    
    11    3   35 1    
    12    3   36 1    
    13    4    5 1    
    14    4    6 1    
    15    4   37 1    
    16    4   38 1    
    17    5   13 1    
    18    5   39 1    
    19    5   40 1    
    20    6   22 1    
    21    6   41 1    
    22    6   42 1    
    23    7    8 1    
    24    7   43 1    
    25    7   44 1    
    26    8    9 1    
    27    8   45 1    
    28    8   46 1    
    29    9   10 1    
    30    9   47 1    
    31    9   48 1    
    32   10   15 1    
    33   10   49 1    
    34   10   50 1    
    35   11   13 1    
    36   11   23 1    
    37   11   51 1    
    38   11   52 1    
    39   12   15 1    
    40   12   17 1    
    41   12   53 1    
    42   12   54 1    
    43   13   22 1    
    44   13   55 1    
    45   14   16 1    
    46   14   56 1    
    47   15   18 1    
    48   15   57 1    
    49   16   19 1    
    50   16   20 1    
    51   16   58 1    
    52   17   21 am   BACKBONE|DICT|INTERRES
    53   17   25 2    
    54   18   20 am   BACKBONE|DICT|INTERRES
    55   18   26 2    
    56   19   22 am   BACKBONE|DICT|INTERRES
    57   19   27 2    
    58   20   59 1    
    59   21   24 1    
    60   21   60 1    
    61   23   61 1    
    62   24   62 1    
@<TRIPOS>SUBSTRUCTURE
     1 <0>         1 GROUP             0       ****    0 ROOT    
@<TRIPOS>MOLECULE
BB2_501_1LRU
62   62    1
SMALL
USER_CHARGES


@<TRIPOS>ATOM
      1 C1        -35.0122   28.9238   60.1797 C.3       1 <0>        -0.1800 
      2 C2        -27.9925   26.0347   65.9344 C.3       1 <0>        -0.1800 
      3 C3        -27.4180   23.7813   64.9632 C.3       1 <0>        -0.1800 
      4 C4        -33.6606   22.7571   64.8245 C.3       1 <0>        -0.1200 
      5 C5        -34.1007   23.5294   66.0566 C.3       1 <0>        -0.1200 
      6 C6        -32.2029   23.1665   64.6262 C.3       1 <0>        -0.0500 
      7 C7        -33.8866   27.9614   60.5703 C.3       1 <0>        -0.1200 
      8 C8        -32.8761   28.6282   61.5143 C.3       1 <0>        -0.1200 
      9 C9        -31.6941   27.7374   61.9057 C.3       1 <0>        -0.1200 
     10 C10       -30.7087   27.4592   60.7478 C.3       1 <0>        -0.1200 
     11 C11       -33.0210   25.3848   67.4545 C.3       1 <0>         0.1450 
     12 C12       -28.4664   26.4528   59.9821 C.3       1 <0>        -0.1200 
     13 C13       -33.2639   24.8165   66.0312 C.3       1 <0>         0.0100 
     14 C14       -28.5575   24.6825   65.4631 C.3       1 <0>        -0.0600 
     15 C15       -29.3711   26.8120   61.1858 C.3       1 <0>        -0.0600 
     16 C16       -29.7011   24.7650   64.4094 C.3       1 <0>         0.1400 
     17 C17       -27.7095   27.6484   59.3948 C.2       1 <0>         0.5000 
     18 C18       -29.6155   25.5727   62.0563 C.2       1 <0>         0.5000 
     19 C19       -30.9979   25.3010   65.0702 C.2       1 <0>         0.5000 
     20 N1        -29.3102   25.6974   63.3533 N.am      1 <0>        -0.5000 
     21 N2        -27.8092   27.8236   58.0680 N.am      1 <0>        -0.2244 
     22 N3        -32.0380   24.4598   65.2951 N.am      1 <0>        -0.1400 
     23 O1        -34.2234   25.8639   68.0187 O.3       1 <0>        -0.6830 
     24 O2        -26.6806   28.4081   57.4529 O.3       1 <0>        -0.4375 
     25 O3        -27.0086   28.3531   60.1223 O.2       1 <0>        -0.5000 
     26 O4        -30.1098   24.5577   61.5671 O.2       1 <0>        -0.5000 
     27 O5        -31.0509   26.4922   65.3766 O.2       1 <0>        -0.5000 
     28 H1        -35.6851   28.4733   59.4531 H         1 <0>         0.0600 
     29 H2        -34.6094   29.8235   59.7216 H         1 <0>         0.0600 
     30 H3        -35.6013   29.2169   61.0502 H         1 <0>         0.0600 
     31 H4        -27.5872   26.6227   65.1128 H         1 <0>         0.0600 
     32 H5        -28.7577   26.6235   66.4305 H         1 <0>         0.0600 
     33 H6        -27.1884   25.8940   66.6531 H         1 <0>         0.0600 
     34 H7        -26.9239   24.2090   64.0896 H         1 <0>         0.0600 
     35 H8        -26.6654   23.6321   65.7338 H         1 <0>         0.0600 
     36 H9        -27.7918   22.7965   64.6821 H         1 <0>         0.0600 
     37 H10       -34.2508   23.0706   63.9614 H         1 <0>         0.0600 
     38 H11       -33.7844   21.6782   64.9314 H         1 <0>         0.0600 
     39 H12       -35.1746   23.7218   66.0651 H         1 <0>         0.0600 
     40 H13       -33.8632   22.9407   66.9442 H         1 <0>         0.0600 
     41 H14       -31.9857   23.2342   63.5572 H         1 <0>         0.0600 
     42 H15       -31.5242   22.4269   65.0529 H         1 <0>         0.0600 
     43 H16       -34.3071   27.0778   61.0531 H         1 <0>         0.0600 
     44 H17       -33.3879   27.6149   59.6653 H         1 <0>         0.0600 
     45 H18       -32.4907   29.5316   61.0531 H         1 <0>         0.0600 
     46 H19       -33.3970   28.9447   62.4177 H         1 <0>         0.0600 
     47 H20       -31.1544   28.2218   62.7189 H         1 <0>         0.0600 
     48 H21       -32.0782   26.8031   62.3196 H         1 <0>         0.0600 
     49 H22       -31.1952   26.8268   60.0033 H         1 <0>         0.0600 
     50 H23       -30.4872   28.3999   60.2427 H         1 <0>         0.0600 
     51 H24       -32.6046   24.6236   68.1093 H         1 <0>         0.0600 
     52 H25       -32.3200   26.2179   67.4540 H         1 <0>         0.0600 
     53 H26       -27.7086   25.7266   60.2834 H         1 <0>         0.0600 
     54 H27       -29.0600   25.9632   59.2106 H         1 <0>         0.0600 
     55 H28       -33.7819   25.5649   65.4292 H         1 <0>         0.0600 
     56 H29       -28.9663   24.2089   66.3551 H         1 <0>         0.0600 
     57 H30       -28.8490   27.5409   61.8086 H         1 <0>         0.0600 
     58 H31       -29.8459   23.7731   63.9903 H         1 <0>         0.0600 
     59 H32       -28.9394   26.5813   63.6663 H         1 <0>         0.3000 
     60 H33       -28.2130   27.1250   57.4543 H         1 <0>         0.3000 
     61 H34       -34.8385   25.1468   68.0623 H         1 <0>         0.4180 
     62 H35       -26.9996   28.6812   56.6022 H         1 <0>         0.3619 
@<TRIPOS>BOND
     1    1    7 1    
     2    1   28 1    
     3    1   29 1    
     4    1   30 1    
     5    2   14 1    
     6    2   31 1    
     7    2   32 1    
     8    2   33 1    
     9    3   14 1    
    10    3   34 1    
    11    3   35 1    
    12    3   36 1    
    13    4    5 1    
    14    4    6 1    
    15    4   37 1    
    16    4   38 1    
    17    5   13 1    
    18    5   39 1    
    19    5   40 1    
    20    6   22 1    
    21    6   41 1    
    22    6   42 1    
    23    7    8 1    
    24    7   43 1    
    25    7   44 1    
    26    8    9 1    
    27    8   45 1    
    28    8   46 1    
    29    9   10 1    
    30    9   47 1    
    31    9   48 1    
    32   10   15 1    
    33   10   49 1    
    34   10   50 1    
    35   11   13 1    
    36   11   23 1    
    37   11   51 1    
    38   11   52 1    
    39   12   15 1    
    40   12   17 1    
    41   12   53 1    
    42   12   54 1    
    43   13   22 1    
    44   13   55 1    
    45   14   16 1    
    46   14   56 1    
    47   15   18 1    
    48   15   57 1    
    49   16   19 1    
    50   16   20 1    
    51   16   58 1    
    52   17   21 am   BACKBONE|DICT|INTERRES
    53   17   25 2    
    54   18   20 am   BACKBONE|DICT|INTERRES
    55   18   26 2    
    56   19   22 am   BACKBONE|DICT|INTERRES
    57   19   27 2    
    58   20   59 1    
    59   21   24 1    
    60   21   60 1    
    61   23   61 1    
    62   24   62 1    
@<TRIPOS>SUBSTRUCTURE
     1 <0>         1 GROUP             0       ****    0 ROOT    
@<TRIPOS>MOLECULE
BB2_501_1LRU
62   62    1
SMALL
USER_CHARGES


@<TRIPOS>ATOM
      1 C1        -34.9956   28.8996   60.2116 C.3       1 <0>        -0.1800 
      2 C2        -27.9747   26.0297   65.9368 C.3       1 <0>        -0.1800 
      3 C3        -27.4046   23.7492   65.0132 C.3       1 <0>        -0.1800 
      4 C4        -33.7044   22.8241   64.7710 C.3       1 <0>        -0.1200 
      5 C5        -34.1324   23.5916   66.0094 C.3       1 <0>        -0.1200 
      6 C6        -32.2265   23.1828   64.6062 C.3       1 <0>        -0.0500 
      7 C7        -33.8475   27.9531   60.5755 C.3       1 <0>        -0.1200 
      8 C8        -32.8354   28.6235   61.5164 C.3       1 <0>        -0.1200 
      9 C9        -31.6567   27.7253   61.9131 C.3       1 <0>        -0.1200 
     10 C10       -30.6869   27.4199   60.7495 C.3       1 <0>        -0.1200 
     11 C11       -33.0139   25.3995   67.4357 C.3       1 <0>         0.1450 
     12 C12       -28.4403   26.4317   59.9886 C.3       1 <0>        -0.1200 
     13 C13       -33.2605   24.8559   66.0042 C.3       1 <0>         0.0100 
     14 C14       -28.5438   24.6698   65.4856 C.3       1 <0>        -0.0600 
     15 C15       -29.3493   26.7787   61.1928 C.3       1 <0>        -0.0600 
     16 C16       -29.6812   24.7395   64.4215 C.3       1 <0>         0.1400 
     17 C17       -27.7033   27.6411   59.3983 C.2       1 <0>         0.5000 
     18 C18       -29.5937   25.5384   62.0626 C.2       1 <0>         0.5000 
     19 C19       -30.9773   25.2930   65.0689 C.2       1 <0>         0.5000 
     20 N1        -29.2770   25.6598   63.3594 N.am      1 <0>        -0.5000 
     21 N2        -27.8095   27.8219   58.0734 N.am      1 <0>        -0.2244 
     22 N3        -32.0347   24.4720   65.2792 N.am      1 <0>        -0.1400 
     23 O1        -34.2179   25.8764   67.9991 O.3       1 <0>        -0.6830 
     24 O2        -26.6894   28.4190   57.4545 O.3       1 <0>        -0.4375 
     25 O3        -27.0082   28.3477   60.1265 O.2       1 <0>        -0.5000 
     26 O4        -30.0972   24.5237   61.5766 O.2       1 <0>        -0.5000 
     27 O5        -31.0154   26.4834   65.3830 O.2       1 <0>        -0.5000 
     28 H1        -35.6487   28.4588   59.4615 H         1 <0>         0.0600 
     29 H2        -34.6115   29.8234   59.7903 H         1 <0>         0.0600 
     30 H3        -35.6005   29.1484   61.0830 H         1 <0>         0.0600 
     31 H4        -27.5716   26.6112   65.1091 H         1 <0>         0.0600 
     32 H5        -28.7359   26.6237   66.4329 H         1 <0>         0.0600 
     33 H6        -27.1679   25.8975   66.6524 H         1 <0>         0.0600 
     34 H7        -26.9060   24.1509   64.1303 H         1 <0>         0.0600 
     35 H8        -26.6512   23.6257   65.7942 H         1 <0>         0.0600 
     36 H9        -27.7786   22.7552   64.7640 H         1 <0>         0.0600 
     37 H10       -34.2684   23.1776   63.9065 H         1 <0>         0.0600 
     38 H11       -33.8745   21.7490   64.8544 H         1 <0>         0.0600 
     39 H12       -35.2003   23.8138   66.0139 H         1 <0>         0.0600 
     40 H13       -33.9139   22.9903   66.8927 H         1 <0>         0.0600 
     41 H14       -31.9790   23.2331   63.5434 H         1 <0>         0.0600 
     42 H15       -31.5889   22.4229   65.0528 H         1 <0>         0.0600 
     43 H16       -34.2471   27.0539   61.0477 H         1 <0>         0.0600 
     44 H17       -33.3506   27.6340   59.6609 H         1 <0>         0.0600 
     45 H18       -32.4414   29.5257   61.0546 H         1 <0>         0.0600 
     46 H19       -33.3532   28.9486   62.4204 H         1 <0>         0.0600 
     47 H20       -31.1037   28.2215   62.7126 H         1 <0>         0.0600 
     48 H21       -32.0443   26.8040   62.3502 H         1 <0>         0.0600 
     49 H22       -31.1836   26.7686   60.0281 H         1 <0>         0.0600 
     50 H23       -30.4674   28.3482   60.2190 H         1 <0>         0.0600 
     51 H24       -32.6076   24.6231   68.0811 H         1 <0>         0.0600 
     52 H25       -32.3104   26.2316   67.4523 H         1 <0>         0.0600 
     53 H26       -27.6713   25.7175   60.2921 H         1 <0>         0.0600 
     54 H27       -29.0284   25.9273   59.2183 H         1 <0>         0.0600 
     55 H28       -33.7529   25.6240   65.4032 H         1 <0>         0.0600 
     56 H29       -28.9608   24.2149   66.3845 H         1 <0>         0.0600 
     57 H30       -28.8300   27.5106   61.8172 H         1 <0>         0.0600 
     58 H31       -29.8319   23.7409   64.0150 H         1 <0>         0.0600 
     59 H32       -28.8925   26.5409   63.6704 H         1 <0>         0.3000 
     60 H33       -28.2133   27.1224   57.4603 H         1 <0>         0.3000 
     61 H34       -34.8469   25.1695   67.9911 H         1 <0>         0.4180 
     62 H35       -27.0091   28.6830   56.5971 H         1 <0>         0.3619 
@<TRIPOS>BOND
     1    1    7 1    
     2    1   28 1    
     3    1   29 1    
     4    1   30 1    
     5    2   14 1    
     6    2   31 1    
     7    2   32 1    
     8    2   33 1    
     9    3   14 1    
    10    3   34 1    
    11    3   35 1    
    12    3   36 1    
    13    4    5 1    
    14    4    6 1    
    15    4   37 1    
    16    4   38 1    
    17    5   13 1    
    18    5   39 1    
    19    5   40 1    
    20    6   22 1    
    21    6   41 1    
    22    6   42 1    
    23    7    8 1    
    24    7   43 1    
    25    7   44 1    
    26    8    9 1    
    27    8   45 1    
    28    8   46 1    
    29    9   10 1    
    30    9   47 1    
    31    9   48 1    
    32   10   15 1    
    33   10   49 1    
    34   10   50 1    
    35   11   13 1    
    36   11   23 1    
    37   11   51 1    
    38   11   52 1    
    39   12   15 1    
    40   12   17 1    
    41   12   53 1    
    42   12   54 1    
    43   13   22 1    
    44   13   55 1    
    45   14   16 1    
    46   14   56 1    
    47   15   18 1    
    48   15   57 1    
    49   16   19 1    
    50   16   20 1    
    51   16   58 1    
    52   17   21 am   BACKBONE|DICT|INTERRES
    53   17   25 2    
    54   18   20 am   BACKBONE|DICT|INTERRES
    55   18   26 2    
    56   19   22 am   BACKBONE|DICT|INTERRES
    57   19   27 2    
    58   20   59 1    
    59   21   24 1    
    60   21   60 1    
    61   23   61 1    
    62   24   62 1    
@<TRIPOS>SUBSTRUCTURE
     1 <0>         1 GROUP             0       ****    0 ROOT    
@<TRIPOS>MOLECULE
BB2_501_1LRU
62   62    1
SMALL
USER_CHARGES


@<TRIPOS>ATOM
      1 C1        -35.0506   29.0059   60.3244 C.3       1 <0>        -0.1800 
      2 C2        -28.1686   26.0192   66.1535 C.3       1 <0>        -0.1800 
      3 C3        -27.7182   23.8277   64.9821 C.3       1 <0>        -0.1800 
      4 C4        -33.9111   23.0639   65.2950 C.3       1 <0>        -0.1200 
      5 C5        -34.2929   23.9519   66.4657 C.3       1 <0>        -0.1200 
      6 C6        -32.4673   23.4546   64.9882 C.3       1 <0>        -0.0500 
      7 C7        -33.9299   28.4783   61.2238 C.3       1 <0>        -0.1200 
      8 C8        -32.7438   27.9585   60.4054 C.3       1 <0>        -0.1200 
      9 C9        -31.5924   27.4529   61.2762 C.3       1 <0>        -0.1200 
     10 C10       -30.3614   27.0769   60.4303 C.3       1 <0>        -0.1200 
     11 C11       -33.1767   25.9517   67.6009 C.3       1 <0>         0.1450 
     12 C12       -27.8885   26.4047   60.3451 C.3       1 <0>        -0.1200 
     13 C13       -33.4765   25.2375   66.2618 C.3       1 <0>         0.0100 
     14 C14       -28.8033   24.7440   65.5719 C.3       1 <0>        -0.0600 
     15 C15       -29.0921   26.7422   61.2499 C.3       1 <0>        -0.0600 
     16 C16       -29.9555   24.9980   64.5599 C.3       1 <0>         0.1400 
     17 C17       -27.4105   27.5931   59.5065 C.2       1 <0>         0.5000 
     18 C18       -29.3569   25.5797   62.2102 C.2       1 <0>         0.5000 
     19 C19       -31.2193   25.6032   65.2162 C.2       1 <0>         0.5000 
     20 N1        -29.5172   25.9027   63.5013 N.am      1 <0>        -0.5000 
     21 N2        -27.4093   27.4190   58.1843 N.am      1 <0>        -0.2244 
     22 N3        -32.2739   24.8087   65.5221 N.am      1 <0>        -0.1400 
     23 O1        -34.3775   26.3165   68.2525 O.3       1 <0>        -0.6830 
     24 O2        -26.6101   28.3049   57.4521 O.3       1 <0>        -0.4375 
     25 O3        -27.0071   28.6229   60.0452 O.2       1 <0>        -0.5000 
     26 O4        -29.4476   24.4303   61.7823 O.2       1 <0>        -0.5000 
     27 O5        -31.2209   26.8133   65.4506 O.2       1 <0>        -0.5000 
     28 H1        -35.8925   29.3679   60.9138 H         1 <0>         0.0600 
     29 H2        -35.4108   28.2240   59.6593 H         1 <0>         0.0600 
     30 H3        -34.6941   29.8231   59.7038 H         1 <0>         0.0600 
     31 H4        -27.6935   26.6292   65.3853 H         1 <0>         0.0600 
     32 H5        -28.9186   26.6232   66.6527 H         1 <0>         0.0600 
     33 H6        -27.4129   25.7760   66.8994 H         1 <0>         0.0600 
     34 H7        -27.1985   24.3110   64.1538 H         1 <0>         0.0600 
     35 H8        -26.9749   23.5651   65.7338 H         1 <0>         0.0600 
     36 H9        -28.1439   22.8960   64.6090 H         1 <0>         0.0600 
     37 H10       -34.5441   23.2954   64.4351 H         1 <0>         0.0600 
     38 H11       -34.0266   22.0006   65.5128 H         1 <0>         0.0600 
     39 H12       -35.3660   24.1362   66.5168 H         1 <0>         0.0600 
     40 H13       -33.9972   23.4614   67.3935 H         1 <0>         0.0600 
     41 H14       -32.3052   23.4156   63.9106 H         1 <0>         0.0600 
     42 H15       -31.7634   22.7676   65.4529 H         1 <0>         0.0600 
     43 H16       -33.5954   29.2778   61.8887 H         1 <0>         0.0600 
     44 H17       -34.3152   27.6831   61.8642 H         1 <0>         0.0600 
     45 H18       -33.0746   27.1582   59.7421 H         1 <0>         0.0600 
     46 H19       -32.3767   28.7600   59.7690 H         1 <0>         0.0600 
     47 H20       -31.3105   28.2237   61.9946 H         1 <0>         0.0600 
     48 H21       -31.9331   26.5978   61.8595 H         1 <0>         0.0600 
     49 H22       -30.6123   26.2414   59.7727 H         1 <0>         0.0600 
     50 H23       -30.1421   27.9189   59.7734 H         1 <0>         0.0600 
     51 H24       -32.5911   25.3104   68.2597 H         1 <0>         0.0600 
     52 H25       -32.6143   26.8713   67.4532 H         1 <0>         0.0600 
     53 H26       -27.0450   26.0707   60.9529 H         1 <0>         0.0600 
     54 H27       -28.1367   25.5676   59.6858 H         1 <0>         0.0600 
     55 H28       -34.0340   25.9120   65.6070 H         1 <0>         0.0600 
     56 H29       -29.2399   24.2228   66.4241 H         1 <0>         0.0600 
     57 H30       -28.8329   27.6196   61.8467 H         1 <0>         0.0600 
     58 H31       -30.1990   24.0357   64.1183 H         1 <0>         0.0600 
     59 H32       -29.4570   26.8764   63.7603 H         1 <0>         0.3000 
     60 H33       -27.6872   26.6105   57.6377 H         1 <0>         0.3000 
     61 H34       -34.9049   25.5393   68.3555 H         1 <0>         0.4180 
     62 H35       -26.2926   28.8955   58.1231 H         1 <0>         0.3619 
@<TRIPOS>BOND
     1    1    7 1    
     2    1   28 1    
     3    1   29 1    
     4    1   30 1    
     5    2   14 1    
     6    2   31 1    
     7    2   32 1    
     8    2   33 1    
     9    3   14 1    
    10    3   34 1    
    11    3   35 1    
    12    3   36 1    
    13    4    5 1    
    14    4    6 1    
    15    4   37 1    
    16    4   38 1    
    17    5   13 1    
    18    5   39 1    
    19    5   40 1    
    20    6   22 1    
    21    6   41 1    
    22    6   42 1    
    23    7    8 1    
    24    7   43 1    
    25    7   44 1    
    26    8    9 1    
    27    8   45 1    
    28    8   46 1    
    29    9   10 1    
    30    9   47 1    
    31    9   48 1    
    32   10   15 1    
    33   10   49 1    
    34   10   50 1    
    35   11   13 1    
    36   11   23 1    
    37   11   51 1    
    38   11   52 1    
    39   12   15 1    
    40   12   17 1    
    41   12   53 1    
    42   12   54 1    
    43   13   22 1    
    44   13   55 1    
    45   14   16 1    
    46   14   56 1    
    47   15   18 1    
    48   15   57 1    
    49   16   19 1    
    50   16   20 1    
    51   16   58 1    
    52   17   21 am   BACKBONE|DICT|INTERRES
    53   17   25 2    
    54   18   20 am   BACKBONE|DICT|INTERRES
    55   18   26 2    
    56   19   22 am   BACKBONE|DICT|INTERRES
    57   19   27 2    
    58   20   59 1    
    59   21   24 1    
    60   21   60 1    
    61   23   61 1    
    62   24   62 1    
@<TRIPOS>SUBSTRUCTURE
     1 <0>         1 GROUP             0       ****    0 ROOT    
@<TRIPOS>MOLECULE
BB2_501_1LRU
62   62    1
SMALL
USER_CHARGES


@<TRIPOS>ATOM
      1 C1        -34.7916   28.4891   60.1822 C.3       1 <0>        -0.1800 
      2 C2        -28.1545   25.8215   66.5323 C.3       1 <0>        -0.1800 
      3 C3        -27.2565   23.9756   65.0501 C.3       1 <0>        -0.1800 
      4 C4        -33.6325   22.8737   64.6801 C.3       1 <0>        -0.1200 
      5 C5        -34.1662   23.6016   65.9097 C.3       1 <0>        -0.1200 
      6 C6        -32.1572   23.2763   64.6147 C.3       1 <0>        -0.0500 
      7 C7        -33.5280   27.7229   60.5887 C.3       1 <0>        -0.1200 
      8 C8        -32.6352   28.5246   61.5465 C.3       1 <0>        -0.1200 
      9 C9        -31.4214   27.7194   62.0316 C.3       1 <0>        -0.1200 
     10 C10       -30.3645   27.5243   60.9279 C.3       1 <0>        -0.1200 
     11 C11       -33.0926   25.3162   67.4273 C.3       1 <0>         0.1450 
     12 C12       -28.1962   26.4050   60.1947 C.3       1 <0>        -0.1200 
     13 C13       -33.3275   24.8799   65.9840 C.3       1 <0>         0.0100 
     14 C14       -28.5169   24.5820   65.6905 C.3       1 <0>        -0.0600 
     15 C15       -29.0713   26.8222   61.4031 C.3       1 <0>        -0.0600 
     16 C16       -29.6503   24.8429   64.6561 C.3       1 <0>         0.1400 
     17 C17       -27.4868   27.5840   59.5157 C.2       1 <0>         0.5000 
     18 C18       -29.3903   25.5997   62.2800 C.2       1 <0>         0.5000 
     19 C19       -30.9586   25.3692   65.2839 C.2       1 <0>         0.5000 
     20 N1        -29.2031   25.7508   63.5984 N.am      1 <0>        -0.5000 
     21 N2        -27.8129   27.8254   58.2385 N.am      1 <0>        -0.2244 
     22 N3        -32.0780   24.5623   65.2984 N.am      1 <0>        -0.1400 
     23 O1        -34.2803   25.7724   68.0441 O.3       1 <0>        -0.6830 
     24 O2        -26.8515   28.5512   57.5038 O.3       1 <0>        -0.4375 
     25 O3        -26.6271   28.2234   60.1236 O.2       1 <0>        -0.5000 
     26 O4        -29.7773   24.5507   61.7654 O.2       1 <0>        -0.5000 
     27 O5        -30.9668   26.5003   65.7754 O.2       1 <0>        -0.5000 
     28 H1        -35.4042   27.8956   59.5032 H         1 <0>         0.0600 
     29 H2        -34.5412   29.4213   59.6751 H         1 <0>         0.0600 
     30 H3        -35.4014   28.7335   61.0524 H         1 <0>         0.0600 
     31 H4        -27.7381   26.6194   65.9172 H         1 <0>         0.0600 
     32 H5        -29.0247   26.2220   67.0527 H         1 <0>         0.0600 
     33 H6        -27.4114   25.5733   67.2905 H         1 <0>         0.0600 
     34 H7        -26.7651   24.6803   64.3803 H         1 <0>         0.0600 
     35 H8        -26.5301   23.6892   65.8110 H         1 <0>         0.0600 
     36 H9        -27.4973   23.0816   64.4743 H         1 <0>         0.0600 
     37 H10       -34.1498   23.2323   63.7902 H         1 <0>         0.0600 
     38 H11       -33.7741   21.7942   64.7319 H         1 <0>         0.0600 
     39 H12       -35.2363   23.8011   65.8531 H         1 <0>         0.0600 
     40 H13       -33.9896   22.9958   66.7984 H         1 <0>         0.0600 
     41 H14       -31.8028   23.3366   63.5857 H         1 <0>         0.0600 
     42 H15       -31.5359   22.5534   65.1434 H         1 <0>         0.0600 
     43 H16       -33.8148   26.7807   61.0574 H         1 <0>         0.0600 
     44 H17       -32.9629   27.4622   59.6930 H         1 <0>         0.0600 
     45 H18       -32.2919   29.4321   61.0479 H         1 <0>         0.0600 
     46 H19       -33.2240   28.8482   62.4058 H         1 <0>         0.0600 
     47 H20       -30.9668   28.2280   62.8827 H         1 <0>         0.0600 
     48 H21       -31.7636   26.7510   62.3982 H         1 <0>         0.0600 
     49 H22       -30.8035   26.9703   60.0965 H         1 <0>         0.0600 
     50 H23       -30.1038   28.5041   60.5260 H         1 <0>         0.0600 
     51 H24       -32.6687   24.5094   68.0251 H         1 <0>         0.0600 
     52 H25       -32.3658   26.1287   67.4496 H         1 <0>         0.0600 
     53 H26       -27.4674   25.6505   60.4967 H         1 <0>         0.0600 
     54 H27       -28.8210   25.9319   59.4368 H         1 <0>         0.0600 
     55 H28       -33.8214   25.6987   65.4608 H         1 <0>         0.0600 
     56 H29       -28.8848   23.8323   66.3919 H         1 <0>         0.0600 
     57 H30       -28.5130   27.5455   62.0008 H         1 <0>         0.0600 
     58 H31       -29.8913   23.8940   64.1768 H         1 <0>         0.0600 
     59 H32       -28.7047   26.5719   63.9113 H         1 <0>         0.3000 
     60 H33       -28.3593   27.2304   57.6319 H         1 <0>         0.3000 
     61 H34       -34.9217   25.0788   68.0123 H         1 <0>         0.4180 
     62 H35       -27.3123   28.7614   56.7035 H         1 <0>         0.3619 
@<TRIPOS>BOND
     1    1    7 1    
     2    1   28 1    
     3    1   29 1    
     4    1   30 1    
     5    2   14 1    
     6    2   31 1    
     7    2   32 1    
     8    2   33 1    
     9    3   14 1    
    10    3   34 1    
    11    3   35 1    
    12    3   36 1    
    13    4    5 1    
    14    4    6 1    
    15    4   37 1    
    16    4   38 1    
    17    5   13 1    
    18    5   39 1    
    19    5   40 1    
    20    6   22 1    
    21    6   41 1    
    22    6   42 1    
    23    7    8 1    
    24    7   43 1    
    25    7   44 1    
    26    8    9 1    
    27    8   45 1    
    28    8   46 1    
    29    9   10 1    
    30    9   47 1    
    31    9   48 1    
    32   10   15 1    
    33   10   49 1    
    34   10   50 1    
    35   11   13 1    
    36   11   23 1    
    37   11   51 1    
    38   11   52 1    
    39   12   15 1    
    40   12   17 1    
    41   12   53 1    
    42   12   54 1    
    43   13   22 1    
    44   13   55 1    
    45   14   16 1    
    46   14   56 1    
    47   15   18 1    
    48   15   57 1    
    49   16   19 1    
    50   16   20 1    
    51   16   58 1    
    52   17   21 am   BACKBONE|DICT|INTERRES
    53   17   25 2    
    54   18   20 am   BACKBONE|DICT|INTERRES
    55   18   26 2    
    56   19   22 am   BACKBONE|DICT|INTERRES
    57   19   27 2    
    58   20   59 1    
    59   21   24 1    
    60   21   60 1    
    61   23   61 1    
    62   24   62 1    
@<TRIPOS>SUBSTRUCTURE
     1 <0>         1 GROUP             0       ****    0 ROOT    
@<TRIPOS>MOLECULE
BB2_501_1LRU
62   62    1
SMALL
USER_CHARGES


@<TRIPOS>ATOM
      1 C1        -34.0091   27.9869   63.0680 C.3       1 <0>        -0.1800 
      2 C2        -28.2519   26.0067   65.8960 C.3       1 <0>        -0.1800 
      3 C3        -27.9673   23.8601   64.5952 C.3       1 <0>        -0.1800 
      4 C4        -33.9712   23.1820   65.5881 C.3       1 <0>        -0.1200 
      5 C5        -34.3621   24.1858   66.6540 C.3       1 <0>        -0.1200 
      6 C6        -32.5429   23.5721   65.2225 C.3       1 <0>        -0.0500 
      7 C7        -34.1614   27.2746   61.7200 C.3       1 <0>        -0.1200 
      8 C8        -32.8387   26.7215   61.1657 C.3       1 <0>        -0.1200 
      9 C9        -31.8092   27.8134   60.8147 C.3       1 <0>        -0.1200 
     10 C10       -30.5314   27.2913   60.1213 C.3       1 <0>        -0.1200 
     11 C11       -33.2205   26.2521   67.5869 C.3       1 <0>         0.1450 
     12 C12       -28.0916   26.4979   60.2777 C.3       1 <0>        -0.1200 
     13 C13       -33.5682   25.4556   66.3123 C.3       1 <0>         0.0100 
     14 C14       -28.9739   24.7861   65.3005 C.3       1 <0>        -0.0600 
     15 C15       -29.3529   26.9193   61.0621 C.3       1 <0>        -0.0600 
     16 C16       -30.1724   25.1418   64.3770 C.3       1 <0>         0.1400 
     17 C17       -27.4713   27.6246   59.4587 C.2       1 <0>         0.5000 
     18 C18       -29.7174   25.7735   62.0106 C.2       1 <0>         0.5000 
     19 C19       -31.3663   25.7707   65.1332 C.2       1 <0>         0.5000 
     20 N1        -29.7569   26.0606   63.3175 N.am      1 <0>        -0.5000 
     21 N2        -27.4089   27.4234   58.1405 N.am      1 <0>        -0.2244 
     22 N3        -32.3916   24.9892   65.5547 N.am      1 <0>        -0.1400 
     23 O1        -34.4016   26.6495   68.2532 O.3       1 <0>        -0.6830 
     24 O2        -26.4860   28.2236   57.4530 O.3       1 <0>        -0.4375 
     25 O3        -27.0092   28.6231   60.0094 O.2       1 <0>        -0.5000 
     26 O4        -29.9683   24.6585   61.5546 O.2       1 <0>        -0.5000 
     27 O5        -31.3446   26.9872   65.3294 O.2       1 <0>        -0.5000 
     28 H1        -34.9846   28.2266   63.4886 H         1 <0>         0.0600 
     29 H2        -33.4493   28.9176   62.9746 H         1 <0>         0.0600 
     30 H3        -33.4938   27.3551   63.7883 H         1 <0>         0.0600 
     31 H4        -27.8075   26.6255   65.1174 H         1 <0>         0.0600 
     32 H5        -28.9396   26.6236   66.4691 H         1 <0>         0.0600 
     33 H6        -27.4525   25.7020   66.5710 H         1 <0>         0.0600 
     34 H7        -27.4915   24.3554   63.7478 H         1 <0>         0.0600 
     35 H8        -27.1791   23.5413   65.2789 H         1 <0>         0.0600 
     36 H9        -28.4550   22.9582   64.2241 H         1 <0>         0.0600 
     37 H10       -34.6185   23.3028   64.7175 H         1 <0>         0.0600 
     38 H11       -34.0565   22.1469   65.9214 H         1 <0>         0.0600 
     39 H12       -35.4386   24.3583   66.6879 H         1 <0>         0.0600 
     40 H13       -34.0565   23.7967   67.6270 H         1 <0>         0.0600 
     41 H14       -32.3817   23.3536   64.1662 H         1 <0>         0.0600 
     42 H15       -31.8124   23.0234   65.8124 H         1 <0>         0.0600 
     43 H16       -34.8588   26.4464   61.8528 H         1 <0>         0.0600 
     44 H17       -34.6229   27.9473   60.9960 H         1 <0>         0.0600 
     45 H18       -32.4285   26.0212   61.8910 H         1 <0>         0.0600 
     46 H19       -33.0536   26.1349   60.2726 H         1 <0>         0.0600 
     47 H20       -32.2915   28.5252   60.1447 H         1 <0>         0.0600 
     48 H21       -31.5362   28.3818   61.7033 H         1 <0>         0.0600 
     49 H22       -30.7728   26.4557   59.4610 H         1 <0>         0.0600 
     50 H23       -30.1928   28.0867   59.4571 H         1 <0>         0.0600 
     51 H24       -32.6108   25.6424   68.2535 H         1 <0>         0.0600 
     52 H25       -32.6579   27.1573   67.3724 H         1 <0>         0.0600 
     53 H26       -27.3250   26.1449   60.9686 H         1 <0>         0.0600 
     54 H27       -28.3181   25.6511   59.6265 H         1 <0>         0.0600 
     55 H28       -34.1622   26.0784   65.6417 H         1 <0>         0.0600 
     56 H29       -29.3757   24.2238   66.1439 H         1 <0>         0.0600 
     57 H30       -29.1057   27.7970   61.6640 H         1 <0>         0.0600 
     58 H31       -30.4848   24.2121   63.9109 H         1 <0>         0.0600 
     59 H32       -29.5812   27.0129   63.6061 H         1 <0>         0.3000 
     60 H33       -27.7227   26.6308   57.5895 H         1 <0>         0.3000 
     61 H34       -34.9506   25.8865   68.3629 H         1 <0>         0.4180 
     62 H35       -26.1851   28.8154   58.1308 H         1 <0>         0.3619 
@<TRIPOS>BOND
     1    1    7 1    
     2    1   28 1    
     3    1   29 1    
     4    1   30 1    
     5    2   14 1    
     6    2   31 1    
     7    2   32 1    
     8    2   33 1    
     9    3   14 1    
    10    3   34 1    
    11    3   35 1    
    12    3   36 1    
    13    4    5 1    
    14    4    6 1    
    15    4   37 1    
    16    4   38 1    
    17    5   13 1    
    18    5   39 1    
    19    5   40 1    
    20    6   22 1    
    21    6   41 1    
    22    6   42 1    
    23    7    8 1    
    24    7   43 1    
    25    7   44 1    
    26    8    9 1    
    27    8   45 1    
    28    8   46 1    
    29    9   10 1    
    30    9   47 1    
    31    9   48 1    
    32   10   15 1    
    33   10   49 1    
    34   10   50 1    
    35   11   13 1    
    36   11   23 1    
    37   11   51 1    
    38   11   52 1    
    39   12   15 1    
    40   12   17 1    
    41   12   53 1    
    42   12   54 1    
    43   13   22 1    
    44   13   55 1    
    45   14   16 1    
    46   14   56 1    
    47   15   18 1    
    48   15   57 1    
    49   16   19 1    
    50   16   20 1    
    51   16   58 1    
    52   17   21 am   BACKBONE|DICT|INTERRES
    53   17   25 2    
    54   18   20 am   BACKBONE|DICT|INTERRES
    55   18   26 2    
    56   19   22 am   BACKBONE|DICT|INTERRES
    57   19   27 2    
    58   20   59 1    
    59   21   24 1    
    60   21   60 1    
    61   23   61 1    
    62   24   62 1    
@<TRIPOS>SUBSTRUCTURE
     1 <0>         1 GROUP             0       ****    0 ROOT    
@<TRIPOS>MOLECULE
BB2_501_1LRU
62   62    1
SMALL
USER_CHARGES


@<TRIPOS>ATOM
      1 C1        -35.0268   28.9760   60.1362 C.3       1 <0>        -0.1800 
      2 C2        -28.1624   26.0142   66.1785 C.3       1 <0>        -0.1800 
      3 C3        -27.7044   23.8278   65.0221 C.3       1 <0>        -0.1800 
      4 C4        -33.7895   23.1520   65.6193 C.3       1 <0>        -0.1200 
      5 C5        -34.2185   24.2098   66.6205 C.3       1 <0>        -0.1200 
      6 C6        -32.3618   23.5459   65.2527 C.3       1 <0>        -0.0500 
      7 C7        -33.9188   28.0083   60.5614 C.3       1 <0>        -0.1200 
      8 C8        -32.9131   28.6764   61.5095 C.3       1 <0>        -0.1200 
      9 C9        -31.7408   27.7746   61.9145 C.3       1 <0>        -0.1200 
     10 C10       -30.7012   27.5529   60.7917 C.3       1 <0>        -0.1200 
     11 C11       -33.1662   26.3688   67.4622 C.3       1 <0>         0.1450 
     12 C12       -28.4431   26.5488   60.0790 C.3       1 <0>        -0.1200 
     13 C13       -33.4303   25.4691   66.2324 C.3       1 <0>         0.0100 
     14 C14       -28.7988   24.7532   65.5797 C.3       1 <0>        -0.0600 
     15 C15       -29.3595   26.9364   61.2636 C.3       1 <0>        -0.0600 
     16 C16       -29.9101   25.0152   64.5258 C.3       1 <0>         0.1400 
     17 C17       -27.7207   27.7314   59.4251 C.2       1 <0>         0.5000 
     18 C18       -29.6031   25.7148   62.1599 C.2       1 <0>         0.5000 
     19 C19       -31.1497   25.7096   65.1633 C.2       1 <0>         0.5000 
     20 N1        -29.3988   25.8937   63.4738 N.am      1 <0>        -0.5000 
     21 N2        -27.8091   27.8234   58.0939 N.am      1 <0>        -0.2244 
     22 N3        -32.2133   24.9681   65.5571 N.am      1 <0>        -0.1400 
     23 O1        -34.3768   26.8251   68.0351 O.3       1 <0>        -0.6830 
     24 O2        -26.6818   28.3995   57.4806 O.3       1 <0>        -0.4375 
     25 O3        -27.0093   28.4774   60.0960 O.2       1 <0>        -0.5000 
     26 O4        -30.0248   24.6653   61.6746 O.2       1 <0>        -0.5000 
     27 O5        -31.1271   26.9369   65.2944 O.2       1 <0>        -0.5000 
     28 H1        -35.7352   28.5026   59.4626 H         1 <0>         0.0600 
     29 H2        -34.6111   29.8235   59.6000 H         1 <0>         0.0600 
     30 H3        -35.5822   29.3537   60.9971 H         1 <0>         0.0600 
     31 H4        -27.6584   26.6218   65.4296 H         1 <0>         0.0600 
     32 H5        -28.9235   26.6235   66.6529 H         1 <0>         0.0600 
     33 H6        -27.4299   25.7622   66.9434 H         1 <0>         0.0600 
     34 H7        -27.1552   24.3016   64.2074 H         1 <0>         0.0600 
     35 H8        -26.9852   23.5535   65.7941 H         1 <0>         0.0600 
     36 H9        -28.1292   22.8982   64.6395 H         1 <0>         0.0600 
     37 H10       -34.4258   23.2012   64.7349 H         1 <0>         0.0600 
     38 H11       -33.8563   22.1394   66.0178 H         1 <0>         0.0600 
     39 H12       -35.2973   24.3705   66.6199 H         1 <0>         0.0600 
     40 H13       -33.9335   23.8821   67.6227 H         1 <0>         0.0600 
     41 H14       -32.1819   23.3174   64.2007 H         1 <0>         0.0600 
     42 H15       -31.6238   23.0235   65.8533 H         1 <0>         0.0600 
     43 H16       -34.3601   27.1414   61.0536 H         1 <0>         0.0600 
     44 H17       -33.4078   27.6391   59.6720 H         1 <0>         0.0600 
     45 H18       -32.5187   29.5824   61.0530 H         1 <0>         0.0600 
     46 H19       -33.4398   28.9945   62.4110 H         1 <0>         0.0600 
     47 H20       -31.2400   28.2236   62.7724 H         1 <0>         0.0600 
     48 H21       -32.1359   26.8223   62.2712 H         1 <0>         0.0600 
     49 H22       -31.1428   26.9253   60.0181 H         1 <0>         0.0600 
     50 H23       -30.4883   28.5106   60.3163 H         1 <0>         0.0600 
     51 H24       -32.6039   25.8233   68.2217 H         1 <0>         0.0600 
     52 H25       -32.5994   27.2591   67.2016 H         1 <0>         0.0600 
     53 H26       -27.6649   25.8610   60.4136 H         1 <0>         0.0600 
     54 H27       -29.0195   26.0025   59.3320 H         1 <0>         0.0600 
     55 H28       -33.9955   26.0307   65.4879 H         1 <0>         0.0600 
     56 H29       -29.2630   24.2238   66.4116 H         1 <0>         0.0600 
     57 H30       -28.8452   27.6836   61.8713 H         1 <0>         0.0600 
     58 H31       -30.1805   24.0560   64.0890 H         1 <0>         0.0600 
     59 H32       -29.0755   26.7991   63.7814 H         1 <0>         0.3000 
     60 H33       -28.2066   27.1077   57.4949 H         1 <0>         0.3000 
     61 H34       -34.8803   27.2575   67.3604 H         1 <0>         0.4180 
     62 H35       -26.1395   28.6232   58.2261 H         1 <0>         0.3619 
@<TRIPOS>BOND
     1    1    7 1    
     2    1   28 1    
     3    1   29 1    
     4    1   30 1    
     5    2   14 1    
     6    2   31 1    
     7    2   32 1    
     8    2   33 1    
     9    3   14 1    
    10    3   34 1    
    11    3   35 1    
    12    3   36 1    
    13    4    5 1    
    14    4    6 1    
    15    4   37 1    
    16    4   38 1    
    17    5   13 1    
    18    5   39 1    
    19    5   40 1    
    20    6   22 1    
    21    6   41 1    
    22    6   42 1    
    23    7    8 1    
    24    7   43 1    
    25    7   44 1    
    26    8    9 1    
    27    8   45 1    
    28    8   46 1    
    29    9   10 1    
    30    9   47 1    
    31    9   48 1    
    32   10   15 1    
    33   10   49 1    
    34   10   50 1    
    35   11   13 1    
    36   11   23 1    
    37   11   51 1    
    38   11   52 1    
    39   12   15 1    
    40   12   17 1    
    41   12   53 1    
    42   12   54 1    
    43   13   22 1    
    44   13   55 1    
    45   14   16 1    
    46   14   56 1    
    47   15   18 1    
    48   15   57 1    
    49   16   19 1    
    50   16   20 1    
    51   16   58 1    
    52   17   21 am   BACKBONE|DICT|INTERRES
    53   17   25 2    
    54   18   20 am   BACKBONE|DICT|INTERRES
    55   18   26 2    
    56   19   22 am   BACKBONE|DICT|INTERRES
    57   19   27 2    
    58   20   59 1    
    59   21   24 1    
    60   21   60 1    
    61   23   61 1    
    62   24   62 1    
@<TRIPOS>SUBSTRUCTURE
     1 <0>         1 GROUP             0       ****    0 ROOT    
@<TRIPOS>MOLECULE
BB2_501_1LRU
62   62    1
SMALL
USER_CHARGES


@<TRIPOS>ATOM
      1 C1        -35.0164   28.9631   60.1499 C.3       1 <0>        -0.1800 
      2 C2        -28.1470   26.0090   66.1664 C.3       1 <0>        -0.1800 
      3 C3        -27.7317   23.8264   64.9679 C.3       1 <0>        -0.1800 
      4 C4        -33.7678   23.1464   65.6477 C.3       1 <0>        -0.1200 
      5 C5        -34.1877   24.1856   66.6690 C.3       1 <0>        -0.1200 
      6 C6        -32.3466   23.5533   65.2689 C.3       1 <0>        -0.0500 
      7 C7        -33.8964   28.0007   60.5570 C.3       1 <0>        -0.1200 
      8 C8        -32.8907   28.6664   61.5060 C.3       1 <0>        -0.1200 
      9 C9        -31.7128   27.7688   61.9047 C.3       1 <0>        -0.1200 
     10 C10       -30.6779   27.5460   60.7762 C.3       1 <0>        -0.1200 
     11 C11       -33.1642   26.3656   67.4921 C.3       1 <0>         0.1450 
     12 C12       -28.3941   26.5857   60.0771 C.3       1 <0>        -0.1200 
     13 C13       -33.4264   25.4583   66.2669 C.3       1 <0>         0.0100 
     14 C14       -28.8045   24.7628   65.5509 C.3       1 <0>        -0.0600 
     15 C15       -29.3200   26.9668   61.2562 C.3       1 <0>        -0.0600 
     16 C16       -29.9262   25.0621   64.5186 C.3       1 <0>         0.1400 
     17 C17       -27.6963   27.7692   59.4026 C.2       1 <0>         0.5000 
     18 C18       -29.5371   25.7490   62.1617 C.2       1 <0>         0.5000 
     19 C19       -31.1606   25.7349   65.1795 C.2       1 <0>         0.5000 
     20 N1        -29.4292   25.9613   63.4800 N.am      1 <0>        -0.5000 
     21 N2        -27.7712   27.8231   58.0675 N.am      1 <0>        -0.2244 
     22 N3        -32.2104   24.9765   65.5796 N.am      1 <0>        -0.1400 
     23 O1        -34.3734   26.7963   68.0853 O.3       1 <0>        -0.6830 
     24 O2        -26.6128   28.3362   57.4538 O.3       1 <0>        -0.4375 
     25 O3        -27.0115   28.5497   60.0632 O.2       1 <0>        -0.5000 
     26 O4        -29.8524   24.6626   61.6721 O.2       1 <0>        -0.5000 
     27 O5        -31.1511   26.9585   65.3164 O.2       1 <0>        -0.5000 
     28 H1        -35.7209   28.4974   59.4643 H         1 <0>         0.0600 
     29 H2        -34.6094   29.8234   59.6267 H         1 <0>         0.0600 
     30 H3        -35.5701   29.3222   61.0180 H         1 <0>         0.0600 
     31 H4        -27.6353   26.6221   65.4229 H         1 <0>         0.0600 
     32 H5        -28.8948   26.6233   66.6531 H         1 <0>         0.0600 
     33 H6        -27.4134   25.7311   66.9246 H         1 <0>         0.0600 
     34 H7        -27.1827   24.3030   64.1561 H         1 <0>         0.0600 
     35 H8        -27.0112   23.5327   65.7320 H         1 <0>         0.0600 
     36 H9        -28.1771   22.9096   64.5780 H         1 <0>         0.0600 
     37 H10       -34.4113   23.2105   64.7698 H         1 <0>         0.0600 
     38 H11       -33.8281   22.1249   66.0256 H         1 <0>         0.0600 
     39 H12       -35.2673   24.3298   66.7010 H         1 <0>         0.0600 
     40 H13       -33.8708   23.8556   67.6590 H         1 <0>         0.0600 
     41 H14       -32.1823   23.3338   64.2125 H         1 <0>         0.0600 
     42 H15       -31.5973   23.0236   65.8529 H         1 <0>         0.0600 
     43 H16       -34.3247   27.1246   61.0456 H         1 <0>         0.0600 
     44 H17       -33.3885   27.6459   59.6586 H         1 <0>         0.0600 
     45 H18       -32.5039   29.5764   61.0530 H         1 <0>         0.0600 
     46 H19       -33.4174   28.9744   62.4101 H         1 <0>         0.0600 
     47 H20       -31.2082   28.2236   62.7573 H         1 <0>         0.0600 
     48 H21       -32.0998   26.8144   62.2654 H         1 <0>         0.0600 
     49 H22       -31.1102   26.8922   60.0183 H         1 <0>         0.0600 
     50 H23       -30.4862   28.4975   60.2769 H         1 <0>         0.0600 
     51 H24       -32.5869   25.8231   68.2401 H         1 <0>         0.0600 
     52 H25       -32.6083   27.2646   67.2288 H         1 <0>         0.0600 
     53 H26       -27.6019   25.9196   60.4236 H         1 <0>         0.0600 
     54 H27       -28.9605   26.0140   59.3401 H         1 <0>         0.0600 
     55 H28       -34.0116   26.0052   65.5242 H         1 <0>         0.0600 
     56 H29       -29.2685   24.2234   66.3781 H         1 <0>         0.0600 
     57 H30       -28.8241   27.7314   61.8580 H         1 <0>         0.0600 
     58 H31       -30.2052   24.1163   64.0627 H         1 <0>         0.0600 
     59 H32       -29.2006   26.8950   63.7911 H         1 <0>         0.3000 
     60 H33       -28.1659   27.0822   57.4957 H         1 <0>         0.3000 
     61 H34       -34.8898   27.2324   67.4204 H         1 <0>         0.4180 
     62 H35       -26.0810   28.5894   58.1958 H         1 <0>         0.3619 
@<TRIPOS>BOND
     1    1    7 1    
     2    1   28 1    
     3    1   29 1    
     4    1   30 1    
     5    2   14 1    
     6    2   31 1    
     7    2   32 1    
     8    2   33 1    
     9    3   14 1    
    10    3   34 1    
    11    3   35 1    
    12    3   36 1    
    13    4    5 1    
    14    4    6 1    
    15    4   37 1    
    16    4   38 1    
    17    5   13 1    
    18    5   39 1    
    19    5   40 1    
    20    6   22 1    
    21    6   41 1    
    22    6   42 1    
    23    7    8 1    
    24    7   43 1    
    25    7   44 1    
    26    8    9 1    
    27    8   45 1    
    28    8   46 1    
    29    9   10 1    
    30    9   47 1    
    31    9   48 1    
    32   10   15 1    
    33   10   49 1    
    34   10   50 1    
    35   11   13 1    
    36   11   23 1    
    37   11   51 1    
    38   11   52 1    
    39   12   15 1    
    40   12   17 1    
    41   12   53 1    
    42   12   54 1    
    43   13   22 1    
    44   13   55 1    
    45   14   16 1    
    46   14   56 1    
    47   15   18 1    
    48   15   57 1    
    49   16   19 1    
    50   16   20 1    
    51   16   58 1    
    52   17   21 am   BACKBONE|DICT|INTERRES
    53   17   25 2    
    54   18   20 am   BACKBONE|DICT|INTERRES
    55   18   26 2    
    56   19   22 am   BACKBONE|DICT|INTERRES
    57   19   27 2    
    58   20   59 1    
    59   21   24 1    
    60   21   60 1    
    61   23   61 1    
    62   24   62 1    
@<TRIPOS>SUBSTRUCTURE
     1 <0>         1 GROUP             0       ****    0 ROOT    
@<TRIPOS>MOLECULE
BB2_501_1LRU
62   62    1
SMALL
USER_CHARGES


@<TRIPOS>ATOM
      1 C1        -35.0353   28.9626   60.1505 C.3       1 <0>        -0.1800 
      2 C2        -28.1504   26.0048   66.1587 C.3       1 <0>        -0.1800 
      3 C3        -27.7352   23.8244   64.9639 C.3       1 <0>        -0.1800 
      4 C4        -33.8070   23.1770   65.6119 C.3       1 <0>        -0.1200 
      5 C5        -34.2219   24.2160   66.6352 C.3       1 <0>        -0.1200 
      6 C6        -32.3748   23.5650   65.2560 C.3       1 <0>        -0.0500 
      7 C7        -33.9256   27.9883   60.5552 C.3       1 <0>        -0.1200 
      8 C8        -32.9241   28.6555   61.5032 C.3       1 <0>        -0.1200 
      9 C9        -31.7351   27.7705   61.8926 C.3       1 <0>        -0.1200 
     10 C10       -30.6955   27.5603   60.7659 C.3       1 <0>        -0.1200 
     11 C11       -33.1746   26.3752   67.4840 C.3       1 <0>         0.1450 
     12 C12       -28.4321   26.5746   60.0518 C.3       1 <0>        -0.1200 
     13 C13       -33.4392   25.4778   66.2507 C.3       1 <0>         0.0100 
     14 C14       -28.8118   24.7586   65.5468 C.3       1 <0>        -0.0600 
     15 C15       -29.3411   26.9637   61.2410 C.3       1 <0>        -0.0600 
     16 C16       -29.9332   25.0597   64.5117 C.3       1 <0>         0.1400 
     17 C17       -27.7111   27.7516   59.3918 C.2       1 <0>         0.5000 
     18 C18       -29.5587   25.7473   62.1512 C.2       1 <0>         0.5000 
     19 C19       -31.1653   25.7375   65.1720 C.2       1 <0>         0.5000 
     20 N1        -29.4352   25.9576   63.4706 N.am      1 <0>        -0.5000 
     21 N2        -27.7779   27.8240   58.0572 N.am      1 <0>        -0.2244 
     22 N3        -32.2207   24.9841   65.5705 N.am      1 <0>        -0.1400 
     23 O1        -34.3889   26.8167   68.0635 O.3       1 <0>        -0.6830 
     24 O2        -26.6151   28.3433   57.4562 O.3       1 <0>        -0.4375 
     25 O3        -27.0102   28.5106   60.0637 O.2       1 <0>        -0.5000 
     26 O4        -29.8763   24.6610   61.6632 O.2       1 <0>        -0.5000 
     27 O5        -31.1531   26.9616   65.3106 O.2       1 <0>        -0.5000 
     28 H1        -35.7472   28.5064   59.4664 H         1 <0>         0.0600 
     29 H2        -34.6110   29.8234   59.6347 H         1 <0>         0.0600 
     30 H3        -35.5892   29.3226   61.0195 H         1 <0>         0.0600 
     31 H4        -27.6454   26.6152   65.4091 H         1 <0>         0.0600 
     32 H5        -28.8920   26.6229   66.6532 H         1 <0>         0.0600 
     33 H6        -27.4105   25.7225   66.9075 H         1 <0>         0.0600 
     34 H7        -27.1801   24.3071   64.1600 H         1 <0>         0.0600 
     35 H8        -27.0218   23.5245   65.7288 H         1 <0>         0.0600 
     36 H9        -28.1810   22.9154   64.5618 H         1 <0>         0.0600 
     37 H10       -34.4394   23.2603   64.7266 H         1 <0>         0.0600 
     38 H11       -33.8883   22.1542   65.9795 H         1 <0>         0.0600 
     39 H12       -35.3001   24.3820   66.6569 H         1 <0>         0.0600 
     40 H13       -33.9260   23.8732   67.6277 H         1 <0>         0.0600 
     41 H14       -32.1968   23.3419   64.2017 H         1 <0>         0.0600 
     42 H15       -31.6449   23.0250   65.8533 H         1 <0>         0.0600 
     43 H16       -34.3567   27.1108   61.0402 H         1 <0>         0.0600 
     44 H17       -33.4148   27.6383   59.6584 H         1 <0>         0.0600 
     45 H18       -32.5561   29.5719   61.0537 H         1 <0>         0.0600 
     46 H19       -33.4508   28.9515   62.4128 H         1 <0>         0.0600 
     47 H20       -31.2320   28.2227   62.7480 H         1 <0>         0.0600 
     48 H21       -32.1119   26.8103   62.2482 H         1 <0>         0.0600 
     49 H22       -31.1289   26.9194   59.9972 H         1 <0>         0.0600 
     50 H23       -30.4990   28.5175   60.2805 H         1 <0>         0.0600 
     51 H24       -32.6075   25.8230   68.2324 H         1 <0>         0.0600 
     52 H25       -32.6102   27.2693   67.2333 H         1 <0>         0.0600 
     53 H26       -27.6540   25.8837   60.3804 H         1 <0>         0.0600 
     54 H27       -29.0150   26.0282   59.3103 H         1 <0>         0.0600 
     55 H28       -34.0091   26.0411   65.5057 H         1 <0>         0.0600 
     56 H29       -29.2742   24.2234   66.3774 H         1 <0>         0.0600 
     57 H30       -28.8322   27.7240   61.8384 H         1 <0>         0.0600 
     58 H31       -30.2119   24.1109   64.0580 H         1 <0>         0.0600 
     59 H32       -29.2068   26.8944   63.7775 H         1 <0>         0.3000 
     60 H33       -28.1812   27.1010   57.4744 H         1 <0>         0.3000 
     61 H34       -34.8947   27.2561   67.3926 H         1 <0>         0.4180 
     62 H35       -26.0840   28.5757   58.2049 H         1 <0>         0.3619 
@<TRIPOS>BOND
     1    1    7 1    
     2    1   28 1    
     3    1   29 1    
     4    1   30 1    
     5    2   14 1    
     6    2   31 1    
     7    2   32 1    
     8    2   33 1    
     9    3   14 1    
    10    3   34 1    
    11    3   35 1    
    12    3   36 1    
    13    4    5 1    
    14    4    6 1    
    15    4   37 1    
    16    4   38 1    
    17    5   13 1    
    18    5   39 1    
    19    5   40 1    
    20    6   22 1    
    21    6   41 1    
    22    6   42 1    
    23    7    8 1    
    24    7   43 1    
    25    7   44 1    
    26    8    9 1    
    27    8   45 1    
    28    8   46 1    
    29    9   10 1    
    30    9   47 1    
    31    9   48 1    
    32   10   15 1    
    33   10   49 1    
    34   10   50 1    
    35   11   13 1    
    36   11   23 1    
    37   11   51 1    
    38   11   52 1    
    39   12   15 1    
    40   12   17 1    
    41   12   53 1    
    42   12   54 1    
    43   13   22 1    
    44   13   55 1    
    45   14   16 1    
    46   14   56 1    
    47   15   18 1    
    48   15   57 1    
    49   16   19 1    
    50   16   20 1    
    51   16   58 1    
    52   17   21 am   BACKBONE|DICT|INTERRES
    53   17   25 2    
    54   18   20 am   BACKBONE|DICT|INTERRES
    55   18   26 2    
    56   19   22 am   BACKBONE|DICT|INTERRES
    57   19   27 2    
    58   20   59 1    
    59   21   24 1    
    60   21   60 1    
    61   23   61 1    
    62   24   62 1    
@<TRIPOS>SUBSTRUCTURE
     1 <0>         1 GROUP             0       ****    0 ROOT    
@<TRIPOS>MOLECULE
BB2_501_1LRU
62   62    1
SMALL
USER_CHARGES


@<TRIPOS>ATOM
      1 C1        -35.0614   29.0202   60.1195 C.3       1 <0>        -0.1800 
      2 C2        -28.1782   26.0086   66.1405 C.3       1 <0>        -0.1800 
      3 C3        -27.7582   23.8343   64.9341 C.3       1 <0>        -0.1800 
      4 C4        -33.8015   23.1543   65.6595 C.3       1 <0>        -0.1200 
      5 C5        -34.2224   24.2070   66.6681 C.3       1 <0>        -0.1200 
      6 C6        -32.3823   23.5547   65.2695 C.3       1 <0>        -0.0500 
      7 C7        -33.9775   28.0288   60.5556 C.3       1 <0>        -0.1200 
      8 C8        -32.9641   28.6874   61.5010 C.3       1 <0>        -0.1200 
      9 C9        -31.7831   27.7860   61.8883 C.3       1 <0>        -0.1200 
     10 C10       -30.7416   27.5885   60.7599 C.3       1 <0>        -0.1200 
     11 C11       -33.1765   26.3709   67.4937 C.3       1 <0>         0.1450 
     12 C12       -28.4909   26.5751   60.0325 C.3       1 <0>        -0.1200 
     13 C13       -33.4457   25.4703   66.2648 C.3       1 <0>         0.0100 
     14 C14       -28.8359   24.7609   65.5258 C.3       1 <0>        -0.0600 
     15 C15       -29.3951   26.9696   61.2262 C.3       1 <0>        -0.0600 
     16 C16       -29.9601   25.0496   64.4925 C.3       1 <0>         0.1400 
     17 C17       -27.7390   27.7406   59.3823 C.2       1 <0>         0.5000 
     18 C18       -29.6308   25.7511   62.1274 C.2       1 <0>         0.5000 
     19 C19       -31.1879   25.7298   65.1563 C.2       1 <0>         0.5000 
     20 N1        -29.4620   25.9412   63.4424 N.am      1 <0>        -0.5000 
     21 N2        -27.8051   27.8244   58.0468 N.am      1 <0>        -0.2244 
     22 N3        -32.2382   24.9787   65.5715 N.am      1 <0>        -0.1400 
     23 O1        -34.3822   26.8264   68.0772 O.3       1 <0>        -0.6830 
     24 O2        -26.6214   28.3131   57.4544 O.3       1 <0>        -0.4375 
     25 O3        -27.0150   28.4728   60.0562 O.2       1 <0>        -0.5000 
     26 O4        -30.0113   24.6866   61.6374 O.2       1 <0>        -0.5000 
     27 O5        -31.1759   26.9560   65.2884 O.2       1 <0>        -0.5000 
     28 H1        -35.8092   28.5662   59.4757 H         1 <0>         0.0600 
     29 H2        -34.6098   29.8236   59.5440 H         1 <0>         0.0600 
     30 H3        -35.5751   29.4503   60.9768 H         1 <0>         0.0600 
     31 H4        -27.6834   26.6233   65.3891 H         1 <0>         0.0600 
     32 H5        -28.9182   26.6193   66.6492 H         1 <0>         0.0600 
     33 H6        -27.4294   25.7307   66.8819 H         1 <0>         0.0600 
     34 H7        -27.2101   24.3202   64.1249 H         1 <0>         0.0600 
     35 H8        -27.0350   23.5355   65.6939 H         1 <0>         0.0600 
     36 H9        -28.1998   22.9199   64.5355 H         1 <0>         0.0600 
     37 H10       -34.4511   23.2058   64.7835 H         1 <0>         0.0600 
     38 H11       -33.8590   22.1385   66.0552 H         1 <0>         0.0600 
     39 H12       -35.3003   24.3647   66.6860 H         1 <0>         0.0600 
     40 H13       -33.9213   23.8809   67.6630 H         1 <0>         0.0600 
     41 H14       -32.2292   23.3269   64.2138 H         1 <0>         0.0600 
     42 H15       -31.6334   23.0277   65.8527 H         1 <0>         0.0600 
     43 H16       -34.4393   27.1765   61.0549 H         1 <0>         0.0600 
     44 H17       -33.4733   27.6397   59.6718 H         1 <0>         0.0600 
     45 H18       -32.5751   29.5982   61.0531 H         1 <0>         0.0600 
     46 H19       -33.4821   28.9948   62.4107 H         1 <0>         0.0600 
     47 H20       -31.2832   28.2234   62.7517 H         1 <0>         0.0600 
     48 H21       -32.1719   26.8269   62.2302 H         1 <0>         0.0600 
     49 H22       -31.1793   26.9691   59.9764 H         1 <0>         0.0600 
     50 H23       -30.5308   28.5546   60.2979 H         1 <0>         0.0600 
     51 H24       -32.6091   25.8217   68.2468 H         1 <0>         0.0600 
     52 H25       -32.6092   27.2611   67.2324 H         1 <0>         0.0600 
     53 H26       -27.7283   25.8656   60.3547 H         1 <0>         0.0600 
     54 H27       -29.0827   26.0502   59.2827 H         1 <0>         0.0600 
     55 H28       -34.0261   26.0266   65.5265 H         1 <0>         0.0600 
     56 H29       -29.2927   24.2239   66.3572 H         1 <0>         0.0600 
     57 H30       -28.8755   27.7158   61.8276 H         1 <0>         0.0600 
     58 H31       -30.2393   24.1010   64.0393 H         1 <0>         0.0600 
     59 H32       -29.1874   26.8627   63.7505 H         1 <0>         0.3000 
     60 H33       -28.2102   27.0998   57.4625 H         1 <0>         0.3000 
     61 H34       -34.8857   27.2646   67.4068 H         1 <0>         0.4180 
     62 H35       -26.0967   28.5405   58.2083 H         1 <0>         0.3619 
@<TRIPOS>BOND
     1    1    7 1    
     2    1   28 1    
     3    1   29 1    
     4    1   30 1    
     5    2   14 1    
     6    2   31 1    
     7    2   32 1    
     8    2   33 1    
     9    3   14 1    
    10    3   34 1    
    11    3   35 1    
    12    3   36 1    
    13    4    5 1    
    14    4    6 1    
    15    4   37 1    
    16    4   38 1    
    17    5   13 1    
    18    5   39 1    
    19    5   40 1    
    20    6   22 1    
    21    6   41 1    
    22    6   42 1    
    23    7    8 1    
    24    7   43 1    
    25    7   44 1    
    26    8    9 1    
    27    8   45 1    
    28    8   46 1    
    29    9   10 1    
    30    9   47 1    
    31    9   48 1    
    32   10   15 1    
    33   10   49 1    
    34   10   50 1    
    35   11   13 1    
    36   11   23 1    
    37   11   51 1    
    38   11   52 1    
    39   12   15 1    
    40   12   17 1    
    41   12   53 1    
    42   12   54 1    
    43   13   22 1    
    44   13   55 1    
    45   14   16 1    
    46   14   56 1    
    47   15   18 1    
    48   15   57 1    
    49   16   19 1    
    50   16   20 1    
    51   16   58 1    
    52   17   21 am   BACKBONE|DICT|INTERRES
    53   17   25 2    
    54   18   20 am   BACKBONE|DICT|INTERRES
    55   18   26 2    
    56   19   22 am   BACKBONE|DICT|INTERRES
    57   19   27 2    
    58   20   59 1    
    59   21   24 1    
    60   21   60 1    
    61   23   61 1    
    62   24   62 1    
@<TRIPOS>SUBSTRUCTURE
     1 <0>         1 GROUP             0       ****    0 ROOT    
@<TRIPOS>MOLECULE
BB2_501_1LRU
62   62    1
SMALL
USER_CHARGES


@<TRIPOS>ATOM
      1 C1        -33.9478   28.0337   63.1149 C.3       1 <0>        -0.1800 
      2 C2        -28.2115   25.9996   65.8953 C.3       1 <0>        -0.1800 
      3 C3        -27.9504   23.8569   64.5908 C.3       1 <0>        -0.1800 
      4 C4        -34.1232   23.3582   65.2957 C.3       1 <0>        -0.1200 
      5 C5        -34.4484   24.2589   66.4720 C.3       1 <0>        -0.1200 
      6 C6        -32.6730   23.6961   64.9639 C.3       1 <0>        -0.0500 
      7 C7        -34.1684   27.3927   61.7414 C.3       1 <0>        -0.1200 
      8 C8        -32.8831   26.8196   61.1227 C.3       1 <0>        -0.1200 
      9 C9        -31.8142   27.8857   60.8132 C.3       1 <0>        -0.1200 
     10 C10       -30.5454   27.3421   60.1215 C.3       1 <0>        -0.1200 
     11 C11       -33.2262   26.1906   67.5974 C.3       1 <0>         0.1450 
     12 C12       -28.1195   26.5077   60.2813 C.3       1 <0>        -0.1200 
     13 C13       -33.5801   25.5073   66.2568 C.3       1 <0>         0.0100 
     14 C14       -28.9510   24.7874   65.2996 C.3       1 <0>        -0.0600 
     15 C15       -29.3764   26.9440   61.0634 C.3       1 <0>        -0.0600 
     16 C16       -30.1533   25.1470   64.3796 C.3       1 <0>         0.1400 
     17 C17       -27.4786   27.6272   59.4648 C.2       1 <0>         0.5000 
     18 C18       -29.7665   25.8044   62.0079 C.2       1 <0>         0.5000 
     19 C19       -31.3329   25.7908   65.1477 C.2       1 <0>         0.5000 
     20 N1        -29.7328   26.0675   63.3221 N.am      1 <0>        -0.5000 
     21 N2        -27.4097   27.4236   58.1479 N.am      1 <0>        -0.2244 
     22 N3        -32.4178   25.0433   65.4749 N.am      1 <0>        -0.1400 
     23 O1        -34.4014   26.6211   68.2533 O.3       1 <0>        -0.6830 
     24 O2        -26.4915   28.2210   57.4532 O.3       1 <0>        -0.4375 
     25 O3        -27.0093   28.6217   60.0146 O.2       1 <0>        -0.5000 
     26 O4        -30.1070   24.7147   61.5429 O.2       1 <0>        -0.5000 
     27 O5        -31.2496   26.9854   65.4348 O.2       1 <0>        -0.5000 
     28 H1        -34.8997   28.2264   63.6064 H         1 <0>         0.0600 
     29 H2        -33.4152   28.9822   63.0397 H         1 <0>         0.0600 
     30 H3        -33.3751   27.3787   63.7656 H         1 <0>         0.0600 
     31 H4        -27.7678   26.6226   65.1201 H         1 <0>         0.0600 
     32 H5        -28.8813   26.6231   66.4832 H         1 <0>         0.0600 
     33 H6        -27.4089   25.6833   66.5626 H         1 <0>         0.0600 
     34 H7        -27.4854   24.3455   63.7335 H         1 <0>         0.0600 
     35 H8        -27.1554   23.5423   65.2674 H         1 <0>         0.0600 
     36 H9        -28.4410   22.9511   64.2315 H         1 <0>         0.0600 
     37 H10       -34.7612   23.6171   64.4496 H         1 <0>         0.0600 
     38 H11       -34.2724   22.2999   65.5126 H         1 <0>         0.0600 
     39 H12       -35.5109   24.4928   66.5364 H         1 <0>         0.0600 
     40 H13       -34.1609   23.7533   67.3963 H         1 <0>         0.0600 
     41 H14       -32.5249   23.6223   63.8851 H         1 <0>         0.0600 
     42 H15       -31.9814   23.0186   65.4572 H         1 <0>         0.0600 
     43 H16       -34.8916   26.5852   61.8531 H         1 <0>         0.0600 
     44 H17       -34.6257   28.1158   61.0664 H         1 <0>         0.0600 
     45 H18       -32.4888   26.0571   61.7930 H         1 <0>         0.0600 
     46 H19       -33.1408   26.2996   60.2002 H         1 <0>         0.0600 
     47 H20       -32.2697   28.6266   60.1581 H         1 <0>         0.0600 
     48 H21       -31.5337   28.4211   61.7184 H         1 <0>         0.0600 
     49 H22       -30.8023   26.5140   59.4596 H         1 <0>         0.0600 
     50 H23       -30.1906   28.1319   59.4596 H         1 <0>         0.0600 
     51 H24       -32.6732   25.5070   68.2431 H         1 <0>         0.0600 
     52 H25       -32.6093   27.0751   67.4532 H         1 <0>         0.0600 
     53 H26       -27.3621   26.1347   60.9718 H         1 <0>         0.0600 
     54 H27       -28.3622   25.6688   59.6242 H         1 <0>         0.0600 
     55 H28       -34.1274   26.2115   65.6285 H         1 <0>         0.0600 
     56 H29       -29.3519   24.2238   66.1431 H         1 <0>         0.0600 
     57 H30       -29.1191   27.8154   61.6678 H         1 <0>         0.0600 
     58 H31       -30.4692   24.2126   63.9226 H         1 <0>         0.0600 
     59 H32       -29.4780   27.0002   63.6220 H         1 <0>         0.3000 
     60 H33       -27.7313   26.6331   57.5985 H         1 <0>         0.3000 
     61 H34       -34.9905   25.8830   68.3161 H         1 <0>         0.4180 
     62 H35       -26.1959   28.8215   58.1226 H         1 <0>         0.3619 
@<TRIPOS>BOND
     1    1    7 1    
     2    1   28 1    
     3    1   29 1    
     4    1   30 1    
     5    2   14 1    
     6    2   31 1    
     7    2   32 1    
     8    2   33 1    
     9    3   14 1    
    10    3   34 1    
    11    3   35 1    
    12    3   36 1    
    13    4    5 1    
    14    4    6 1    
    15    4   37 1    
    16    4   38 1    
    17    5   13 1    
    18    5   39 1    
    19    5   40 1    
    20    6   22 1    
    21    6   41 1    
    22    6   42 1    
    23    7    8 1    
    24    7   43 1    
    25    7   44 1    
    26    8    9 1    
    27    8   45 1    
    28    8   46 1    
    29    9   10 1    
    30    9   47 1    
    31    9   48 1    
    32   10   15 1    
    33   10   49 1    
    34   10   50 1    
    35   11   13 1    
    36   11   23 1    
    37   11   51 1    
    38   11   52 1    
    39   12   15 1    
    40   12   17 1    
    41   12   53 1    
    42   12   54 1    
    43   13   22 1    
    44   13   55 1    
    45   14   16 1    
    46   14   56 1    
    47   15   18 1    
    48   15   57 1    
    49   16   19 1    
    50   16   20 1    
    51   16   58 1    
    52   17   21 am   BACKBONE|DICT|INTERRES
    53   17   25 2    
    54   18   20 am   BACKBONE|DICT|INTERRES
    55   18   26 2    
    56   19   22 am   BACKBONE|DICT|INTERRES
    57   19   27 2    
    58   20   59 1    
    59   21   24 1    
    60   21   60 1    
    61   23   61 1    
    62   24   62 1    
@<TRIPOS>SUBSTRUCTURE
     1 <0>         1 GROUP             0       ****    0 ROOT    
@<TRIPOS>MOLECULE
BB2_501_1LRU
62   62    1
SMALL
USER_CHARGES


@<TRIPOS>ATOM
      1 C1        -35.0420   28.9333   60.1781 C.3       1 <0>        -0.1800 
      2 C2        -27.8936   25.9725   65.8763 C.3       1 <0>        -0.1800 
      3 C3        -27.3801   23.7033   64.9093 C.3       1 <0>        -0.1800 
      4 C4        -33.6145   22.7271   64.8258 C.3       1 <0>        -0.1200 
      5 C5        -34.0549   23.5044   66.0547 C.3       1 <0>        -0.1200 
      6 C6        -32.1565   23.1291   64.6290 C.3       1 <0>        -0.0500 
      7 C7        -33.9298   27.9580   60.5742 C.3       1 <0>        -0.1200 
      8 C8        -32.9233   28.6264   61.5180 C.3       1 <0>        -0.1200 
      9 C9        -31.7312   27.7403   61.9079 C.3       1 <0>        -0.1200 
     10 C10       -30.7410   27.4770   60.7509 C.3       1 <0>        -0.1200 
     11 C11       -32.9934   25.3744   67.4465 C.3       1 <0>         0.1450 
     12 C12       -28.5129   26.4589   59.9690 C.3       1 <0>        -0.1200 
     13 C13       -33.2145   24.7887   66.0269 C.3       1 <0>         0.0100 
     14 C14       -28.4963   24.6296   65.4245 C.3       1 <0>        -0.0600 
     15 C15       -29.4031   26.8208   61.1827 C.3       1 <0>        -0.0600 
     16 C16       -29.6553   24.7302   64.3909 C.3       1 <0>         0.1400 
     17 C17       -27.7227   27.6396   59.3921 C.2       1 <0>         0.5000 
     18 C18       -29.6463   25.5797   62.0493 C.2       1 <0>         0.5000 
     19 C19       -30.9396   25.2587   65.0828 C.2       1 <0>         0.5000 
     20 N1        -29.2845   25.6732   63.3378 N.am      1 <0>        -0.5000 
     21 N2        -27.8081   27.8239   58.0652 N.am      1 <0>        -0.2244 
     22 N3        -31.9838   24.4220   65.3016 N.am      1 <0>        -0.1400 
     23 O1        -34.2100   25.8440   67.9883 O.3       1 <0>        -0.6830 
     24 O2        -26.6511   28.3539   57.4534 O.3       1 <0>        -0.4375 
     25 O3        -27.0076   28.3182   60.1265 O.2       1 <0>        -0.5000 
     26 O4        -30.1908   24.5845   61.5698 O.2       1 <0>        -0.5000 
     27 O5        -30.9809   26.4433   65.4146 O.2       1 <0>        -0.5000 
     28 H1        -35.7209   28.4928   59.4536 H         1 <0>         0.0600 
     29 H2        -34.6242   29.8234   59.7140 H         1 <0>         0.0600 
     30 H3        -35.6255   29.2424   61.0449 H         1 <0>         0.0600 
     31 H4        -27.4094   26.5047   65.0564 H         1 <0>         0.0600 
     32 H5        -28.6508   26.6235   66.2997 H         1 <0>         0.0600 
     33 H6        -27.1464   25.8233   66.6514 H         1 <0>         0.0600 
     34 H7        -26.9004   24.1130   64.0195 H         1 <0>         0.0600 
     35 H8        -26.6139   23.5556   65.6655 H         1 <0>         0.0600 
     36 H9        -27.7747   22.7195   64.6508 H         1 <0>         0.0600 
     37 H10       -34.2014   23.0442   63.9615 H         1 <0>         0.0600 
     38 H11       -33.7432   21.6503   64.9340 H         1 <0>         0.0600 
     39 H12       -35.1276   23.7021   66.0604 H         1 <0>         0.0600 
     40 H13       -33.8224   22.9177   66.9453 H         1 <0>         0.0600 
     41 H14       -31.9395   23.2007   63.5613 H         1 <0>         0.0600 
     42 H15       -31.4789   22.3890   65.0539 H         1 <0>         0.0600 
     43 H16       -34.3545   27.0776   61.0530 H         1 <0>         0.0600 
     44 H17       -33.4240   27.6150   59.6721 H         1 <0>         0.0600 
     45 H18       -32.5581   29.5372   61.0537 H         1 <0>         0.0600 
     46 H19       -33.4418   28.9331   62.4280 H         1 <0>         0.0600 
     47 H20       -31.1936   28.2221   62.7265 H         1 <0>         0.0600 
     48 H21       -32.1065   26.8029   62.3189 H         1 <0>         0.0600 
     49 H22       -31.2266   26.8555   59.9977 H         1 <0>         0.0600 
     50 H23       -30.5178   28.4251   60.2606 H         1 <0>         0.0600 
     51 H24       -32.5808   24.6232   68.1176 H         1 <0>         0.0600 
     52 H25       -32.3018   26.2136   67.4526 H         1 <0>         0.0600 
     53 H26       -27.7760   25.7059   60.2528 H         1 <0>         0.0600 
     54 H27       -29.1234   25.9992   59.1919 H         1 <0>         0.0600 
     55 H28       -33.7222   25.5322   65.4108 H         1 <0>         0.0600 
     56 H29       -28.8958   24.1665   66.3229 H         1 <0>         0.0600 
     57 H30       -28.8743   27.5454   61.8059 H         1 <0>         0.0600 
     58 H31       -29.8096   23.7451   63.9611 H         1 <0>         0.0600 
     59 H32       -28.8769   26.5410   63.6460 H         1 <0>         0.3000 
     60 H33       -28.2291   27.1301   57.4555 H         1 <0>         0.3000 
     61 H34       -34.8253   25.1257   68.0037 H         1 <0>         0.4180 
     62 H35       -26.9572   28.6492   56.6043 H         1 <0>         0.3619 
@<TRIPOS>BOND
     1    1    7 1    
     2    1   28 1    
     3    1   29 1    
     4    1   30 1    
     5    2   14 1    
     6    2   31 1    
     7    2   32 1    
     8    2   33 1    
     9    3   14 1    
    10    3   34 1    
    11    3   35 1    
    12    3   36 1    
    13    4    5 1    
    14    4    6 1    
    15    4   37 1    
    16    4   38 1    
    17    5   13 1    
    18    5   39 1    
    19    5   40 1    
    20    6   22 1    
    21    6   41 1    
    22    6   42 1    
    23    7    8 1    
    24    7   43 1    
    25    7   44 1    
    26    8    9 1    
    27    8   45 1    
    28    8   46 1    
    29    9   10 1    
    30    9   47 1    
    31    9   48 1    
    32   10   15 1    
    33   10   49 1    
    34   10   50 1    
    35   11   13 1    
    36   11   23 1    
    37   11   51 1    
    38   11   52 1    
    39   12   15 1    
    40   12   17 1    
    41   12   53 1    
    42   12   54 1    
    43   13   22 1    
    44   13   55 1    
    45   14   16 1    
    46   14   56 1    
    47   15   18 1    
    48   15   57 1    
    49   16   19 1    
    50   16   20 1    
    51   16   58 1    
    52   17   21 am   BACKBONE|DICT|INTERRES
    53   17   25 2    
    54   18   20 am   BACKBONE|DICT|INTERRES
    55   18   26 2    
    56   19   22 am   BACKBONE|DICT|INTERRES
    57   19   27 2    
    58   20   59 1    
    59   21   24 1    
    60   21   60 1    
    61   23   61 1    
    62   24   62 1    
@<TRIPOS>SUBSTRUCTURE
     1 <0>         1 GROUP             0       ****    0 ROOT    
@<TRIPOS>MOLECULE
BB2_501_1LRU
62   62    1
SMALL
USER_CHARGES


@<TRIPOS>ATOM
      1 C1        -35.0097   28.9065   60.2036 C.3       1 <0>        -0.1800 
      2 C2        -28.1445   26.0081   66.1607 C.3       1 <0>        -0.1800 
      3 C3        -27.7356   23.8277   64.9661 C.3       1 <0>        -0.1800 
      4 C4        -33.8226   23.1906   65.6220 C.3       1 <0>        -0.1200 
      5 C5        -34.2433   24.2376   66.6351 C.3       1 <0>        -0.1200 
      6 C6        -32.3892   23.5732   65.2623 C.3       1 <0>        -0.0500 
      7 C7        -33.8668   27.9571   60.5742 C.3       1 <0>        -0.1200 
      8 C8        -32.8684   28.6385   61.5176 C.3       1 <0>        -0.1200 
      9 C9        -31.6831   27.7587   61.9203 C.3       1 <0>        -0.1200 
     10 C10       -30.6454   27.5488   60.7952 C.3       1 <0>        -0.1200 
     11 C11       -33.1739   26.3803   67.4994 C.3       1 <0>         0.1450 
     12 C12       -28.3867   26.5687   60.0724 C.3       1 <0>        -0.1200 
     13 C13       -33.4418   25.4940   66.2596 C.3       1 <0>         0.0100 
     14 C14       -28.8050   24.7589   65.5567 C.3       1 <0>        -0.0600 
     15 C15       -29.2967   26.9474   61.2640 C.3       1 <0>        -0.0600 
     16 C16       -29.9320   25.0536   64.5294 C.3       1 <0>         0.1400 
     17 C17       -27.7010   27.7585   59.4002 C.2       1 <0>         0.5000 
     18 C18       -29.5237   25.7283   62.1661 C.2       1 <0>         0.5000 
     19 C19       -31.1625   25.7351   65.1878 C.2       1 <0>         0.5000 
     20 N1        -29.4320   25.9482   63.4864 N.am      1 <0>        -0.5000 
     21 N2        -27.7896   27.8235   58.0673 N.am      1 <0>        -0.2244 
     22 N3        -32.2274   24.9925   65.5794 N.am      1 <0>        -0.1400 
     23 O1        -34.3802   26.8322   68.0832 O.3       1 <0>        -0.6830 
     24 O2        -26.6222   28.3269   57.4547 O.3       1 <0>        -0.4375 
     25 O3        -27.0097   28.5364   60.0571 O.2       1 <0>        -0.5000 
     26 O4        -29.8264   24.6397   61.6775 O.2       1 <0>        -0.5000 
     27 O5        -31.1356   26.9588   65.3357 O.2       1 <0>        -0.5000 
     28 H1        -35.6646   28.4586   59.4604 H         1 <0>         0.0600 
     29 H2        -34.6184   29.8232   59.7750 H         1 <0>         0.0600 
     30 H3        -35.6144   29.1628   61.0723 H         1 <0>         0.0600 
     31 H4        -27.6413   26.6213   65.4123 H         1 <0>         0.0600 
     32 H5        -28.8918   26.6237   66.6510 H         1 <0>         0.0600 
     33 H6        -27.4098   25.7319   66.9155 H         1 <0>         0.0600 
     34 H7        -27.2023   24.3005   64.1402 H         1 <0>         0.0600 
     35 H8        -26.9990   23.5468   65.7186 H         1 <0>         0.0600 
     36 H9        -28.1783   22.9053   64.5891 H         1 <0>         0.0600 
     37 H10       -34.4565   23.2661   64.7374 H         1 <0>         0.0600 
     38 H11       -33.8999   22.1720   66.0020 H         1 <0>         0.0600 
     39 H12       -35.3206   24.4099   66.6347 H         1 <0>         0.0600 
     40 H13       -33.9648   23.8960   67.6341 H         1 <0>         0.0600 
     41 H14       -32.2166   23.3531   64.2071 H         1 <0>         0.0600 
     42 H15       -31.6600   23.0264   65.8530 H         1 <0>         0.0600 
     43 H16       -34.2674   27.0620   61.0511 H         1 <0>         0.0600 
     44 H17       -33.3647   27.6312   59.6638 H         1 <0>         0.0600 
     45 H18       -32.4934   29.5462   61.0537 H         1 <0>         0.0600 
     46 H19       -33.3973   28.9499   62.4196 H         1 <0>         0.0600 
     47 H20       -31.1837   28.2235   62.7717 H         1 <0>         0.0600 
     48 H21       -32.0606   26.8032   62.2873 H         1 <0>         0.0600 
     49 H22       -31.0834   26.9230   60.0165 H         1 <0>         0.0600 
     50 H23       -30.4423   28.5121   60.3249 H         1 <0>         0.0600 
     51 H24       -32.6094   25.8231   68.2483 H         1 <0>         0.0600 
     52 H25       -32.6087   27.2768   67.2471 H         1 <0>         0.0600 
     53 H26       -27.5877   25.9037   60.4037 H         1 <0>         0.0600 
     54 H27       -28.9601   26.0017   59.3383 H         1 <0>         0.0600 
     55 H28       -34.0050   26.0647   65.5176 H         1 <0>         0.0600 
     56 H29       -29.2645   24.2264   66.3893 H         1 <0>         0.0600 
     57 H30       -28.7886   27.7038   61.8666 H         1 <0>         0.0600 
     58 H31       -30.2159   24.1076   64.0756 H         1 <0>         0.0600 
     59 H32       -29.2080   26.8852   63.7936 H         1 <0>         0.3000 
     60 H33       -28.1889   27.0854   57.4928 H         1 <0>         0.3000 
     61 H34       -34.8777   27.2888   67.4186 H         1 <0>         0.4180 
     62 H35       -26.0908   28.5743   58.2011 H         1 <0>         0.3619 
@<TRIPOS>BOND
     1    1    7 1    
     2    1   28 1    
     3    1   29 1    
     4    1   30 1    
     5    2   14 1    
     6    2   31 1    
     7    2   32 1    
     8    2   33 1    
     9    3   14 1    
    10    3   34 1    
    11    3   35 1    
    12    3   36 1    
    13    4    5 1    
    14    4    6 1    
    15    4   37 1    
    16    4   38 1    
    17    5   13 1    
    18    5   39 1    
    19    5   40 1    
    20    6   22 1    
    21    6   41 1    
    22    6   42 1    
    23    7    8 1    
    24    7   43 1    
    25    7   44 1    
    26    8    9 1    
    27    8   45 1    
    28    8   46 1    
    29    9   10 1    
    30    9   47 1    
    31    9   48 1    
    32   10   15 1    
    33   10   49 1    
    34   10   50 1    
    35   11   13 1    
    36   11   23 1    
    37   11   51 1    
    38   11   52 1    
    39   12   15 1    
    40   12   17 1    
    41   12   53 1    
    42   12   54 1    
    43   13   22 1    
    44   13   55 1    
    45   14   16 1    
    46   14   56 1    
    47   15   18 1    
    48   15   57 1    
    49   16   19 1    
    50   16   20 1    
    51   16   58 1    
    52   17   21 am   BACKBONE|DICT|INTERRES
    53   17   25 2    
    54   18   20 am   BACKBONE|DICT|INTERRES
    55   18   26 2    
    56   19   22 am   BACKBONE|DICT|INTERRES
    57   19   27 2    
    58   20   59 1    
    59   21   24 1    
    60   21   60 1    
    61   23   61 1    
    62   24   62 1    
@<TRIPOS>SUBSTRUCTURE
     1 <0>         1 GROUP             0       ****    0 ROOT    
@<TRIPOS>MOLECULE
BB2_501_1LRU
62   62    1
SMALL
USER_CHARGES


@<TRIPOS>ATOM
      1 C1        -35.1639   28.8779   60.1728 C.3       1 <0>        -0.1800 
      2 C2        -28.2362   25.9518   66.3815 C.3       1 <0>        -0.1800 
      3 C3        -27.3280   24.2500   64.7414 C.3       1 <0>        -0.1800 
      4 C4        -33.6079   22.7226   65.0554 C.3       1 <0>        -0.1200 
      5 C5        -34.1152   23.5025   66.2642 C.3       1 <0>        -0.1200 
      6 C6        -32.1686   23.2092   64.8701 C.3       1 <0>        -0.0500 
      7 C7        -33.9170   28.0651   60.5380 C.3       1 <0>        -0.1200 
      8 C8        -33.0020   28.8018   61.5266 C.3       1 <0>        -0.1200 
      9 C9        -31.8167   27.9404   61.9845 C.3       1 <0>        -0.1200 
     10 C10       -30.8191   27.6573   60.8453 C.3       1 <0>        -0.1200 
     11 C11       -33.0691   25.3839   67.5916 C.3       1 <0>         0.1450 
     12 C12       -28.6613   26.5393   60.0797 C.3       1 <0>        -0.1200 
     13 C13       -33.3591   24.8318   66.1988 C.3       1 <0>         0.0100 
     14 C14       -28.5740   24.7288   65.5061 C.3       1 <0>        -0.0600 
     15 C15       -29.5121   26.9681   61.3013 C.3       1 <0>        -0.0600 
     16 C16       -29.8018   24.9506   64.5755 C.3       1 <0>         0.1400 
     17 C17       -27.8007   27.6719   59.5044 C.2       1 <0>         0.5000 
     18 C18       -29.8054   25.7557   62.2010 C.2       1 <0>         0.5000 
     19 C19       -31.0725   25.4141   65.3192 C.2       1 <0>         0.5000 
     20 N1        -29.4853   25.8872   63.4957 N.am      1 <0>        -0.5000 
     21 N2        -27.8088   27.8140   58.1718 N.am      1 <0>        -0.2244 
     22 N3        -32.1339   24.5432   65.4589 N.am      1 <0>        -0.1400 
     23 O1        -34.2398   25.8518   68.2316 O.3       1 <0>        -0.6830 
     24 O2        -26.6641   28.4370   57.6309 O.3       1 <0>        -0.4375 
     25 O3        -27.1071   28.3639   60.2512 O.2       1 <0>        -0.5000 
     26 O4        -30.2913   24.7310   61.7228 O.2       1 <0>        -0.5000 
     27 O5        -31.1019   26.5544   65.7882 O.2       1 <0>        -0.5000 
     28 H1        -35.7929   28.3300   59.4708 H         1 <0>         0.0600 
     29 H2        -34.8938   29.8260   59.7070 H         1 <0>         0.0600 
     30 H3        -35.7645   29.0967   61.0562 H         1 <0>         0.0600 
     31 H4        -27.9284   26.8067   65.7790 H         1 <0>         0.0600 
     32 H5        -29.0889   26.2606   66.9864 H         1 <0>         0.0600 
     33 H6        -27.4193   25.7258   67.0673 H         1 <0>         0.0600 
     34 H7        -26.9433   25.0202   64.0740 H         1 <0>         0.0600 
     35 H8        -26.5248   23.9846   65.4291 H         1 <0>         0.0600 
     36 H9        -27.5488   23.3680   64.1397 H         1 <0>         0.0600 
     37 H10       -34.1988   22.9842   64.1777 H         1 <0>         0.0600 
     38 H11       -33.6752   21.6429   65.1890 H         1 <0>         0.0600 
     39 H12       -35.1975   23.6315   66.2618 H         1 <0>         0.0600 
     40 H13       -33.8474   22.9737   67.1789 H         1 <0>         0.0600 
     41 H14       -31.8797   23.2173   63.8191 H         1 <0>         0.0600 
     42 H15       -31.4713   22.5654   65.4062 H         1 <0>         0.0600 
     43 H16       -34.2239   27.1096   60.9651 H         1 <0>         0.0600 
     44 H17       -33.3617   27.8321   59.6287 H         1 <0>         0.0600 
     45 H18       -32.6278   29.7153   61.0624 H         1 <0>         0.0600 
     46 H19       -33.5830   29.1127   62.3958 H         1 <0>         0.0600 
     47 H20       -31.2991   28.4430   62.8026 H         1 <0>         0.0600 
     48 H21       -32.1976   27.0027   62.3908 H         1 <0>         0.0600 
     49 H22       -31.3061   27.0568   60.0751 H         1 <0>         0.0600 
     50 H23       -30.5672   28.6045   60.3671 H         1 <0>         0.0600 
     51 H24       -32.5911   24.6376   68.2261 H         1 <0>         0.0600 
     52 H25       -32.3687   26.2161   67.5162 H         1 <0>         0.0600 
     53 H26       -28.0345   25.6831   60.3357 H         1 <0>         0.0600 
     54 H27       -29.3177   26.2012   59.2775 H         1 <0>         0.0600 
     55 H28       -33.9355   25.5793   65.6536 H         1 <0>         0.0600 
     56 H29       -28.8302   23.9216   66.1933 H         1 <0>         0.0600 
     57 H30       -28.9448   27.7021   61.8771 H         1 <0>         0.0600 
     58 H31       -30.0428   23.9970   64.1058 H         1 <0>         0.0600 
     59 H32       -28.9738   26.7133   63.7719 H         1 <0>         0.3000 
     60 H33       -28.2330   27.1896   57.5005 H         1 <0>         0.3000 
     61 H34       -34.8305   25.1233   68.3491 H         1 <0>         0.4180 
     62 H35       -26.9284   28.6277   56.7417 H         1 <0>         0.3619 
@<TRIPOS>BOND
     1    1    7 1    
     2    1   28 1    
     3    1   29 1    
     4    1   30 1    
     5    2   14 1    
     6    2   31 1    
     7    2   32 1    
     8    2   33 1    
     9    3   14 1    
    10    3   34 1    
    11    3   35 1    
    12    3   36 1    
    13    4    5 1    
    14    4    6 1    
    15    4   37 1    
    16    4   38 1    
    17    5   13 1    
    18    5   39 1    
    19    5   40 1    
    20    6   22 1    
    21    6   41 1    
    22    6   42 1    
    23    7    8 1    
    24    7   43 1    
    25    7   44 1    
    26    8    9 1    
    27    8   45 1    
    28    8   46 1    
    29    9   10 1    
    30    9   47 1    
    31    9   48 1    
    32   10   15 1    
    33   10   49 1    
    34   10   50 1    
    35   11   13 1    
    36   11   23 1    
    37   11   51 1    
    38   11   52 1    
    39   12   15 1    
    40   12   17 1    
    41   12   53 1    
    42   12   54 1    
    43   13   22 1    
    44   13   55 1    
    45   14   16 1    
    46   14   56 1    
    47   15   18 1    
    48   15   57 1    
    49   16   19 1    
    50   16   20 1    
    51   16   58 1    
    52   17   21 am   BACKBONE|DICT|INTERRES
    53   17   25 2    
    54   18   20 am   BACKBONE|DICT|INTERRES
    55   18   26 2    
    56   19   22 am   BACKBONE|DICT|INTERRES
    57   19   27 2    
    58   20   59 1    
    59   21   24 1    
    60   21   60 1    
    61   23   61 1    
    62   24   62 1    
@<TRIPOS>SUBSTRUCTURE
     1 <0>         1 GROUP             0       ****    0 ROOT    
@<TRIPOS>MOLECULE
BB2_501_1LRU
62   62    1
SMALL
USER_CHARGES


@<TRIPOS>ATOM
      1 C1        -34.5968   27.8384   62.0508 C.3       1 <0>        -0.1800 
      2 C2        -28.2166   26.0402   66.0711 C.3       1 <0>        -0.1800 
      3 C3        -27.7318   23.8424   64.9369 C.3       1 <0>        -0.1800 
      4 C4        -33.9171   22.8304   65.1524 C.3       1 <0>        -0.1200 
      5 C5        -34.3060   23.6244   66.3858 C.3       1 <0>        -0.1200 
      6 C6        -32.4941   23.2999   64.8537 C.3       1 <0>        -0.0500 
      7 C7        -33.8080   28.8345   61.1968 C.3       1 <0>        -0.1200 
      8 C8        -32.6751   28.1891   60.3873 C.3       1 <0>        -0.1200 
      9 C9        -31.5705   27.5664   61.2503 C.3       1 <0>        -0.1200 
     10 C10       -30.3695   27.0989   60.4077 C.3       1 <0>        -0.1200 
     11 C11       -33.3039   25.6139   67.6140 C.3       1 <0>         0.1450 
     12 C12       -27.9569   26.2428   60.3366 C.3       1 <0>        -0.1200 
     13 C13       -33.5645   24.9592   66.2334 C.3       1 <0>         0.0100 
     14 C14       -28.8329   24.7360   65.5389 C.3       1 <0>        -0.0600 
     15 C15       -29.1360   26.6689   61.2376 C.3       1 <0>        -0.0600 
     16 C16       -30.0228   24.9358   64.5603 C.3       1 <0>         0.1400 
     17 C17       -27.3197   27.4055   59.5754 C.2       1 <0>         0.5000 
     18 C18       -29.4823   25.5260   62.1999 C.2       1 <0>         0.5000 
     19 C19       -31.3034   25.4577   65.2549 C.2       1 <0>         0.5000 
     20 N1        -29.6499   25.8549   63.4861 N.am      1 <0>        -0.5000 
     21 N2        -27.5079   27.4237   58.2527 N.am      1 <0>        -0.2244 
     22 N3        -32.3455   24.6193   65.4761 N.am      1 <0>        -0.1400 
     23 O1        -33.4109   27.0206   67.5338 O.3       1 <0>        -0.6830 
     24 O2        -26.6119   28.2242   57.5221 O.3       1 <0>        -0.4375 
     25 O3        -26.6100   28.2235   60.1604 O.2       1 <0>        -0.5000 
     26 O4        -29.6143   24.3800   61.7699 O.2       1 <0>        -0.5000 
     27 O5        -31.3331   26.6379   65.6113 O.2       1 <0>        -0.5000 
     28 H1        -35.4088   28.3481   62.5584 H         1 <0>         0.0600 
     29 H2        -33.9763   27.3816   62.8212 H         1 <0>         0.0600 
     30 H3        -35.0311   27.0392   61.4530 H         1 <0>         0.0600 
     31 H4        -27.8043   26.6492   65.2679 H         1 <0>         0.0600 
     32 H5        -28.9567   26.6236   66.6043 H         1 <0>         0.0600 
     33 H6        -27.4095   25.8338   66.7736 H         1 <0>         0.0600 
     34 H7        -27.2535   24.3190   64.0811 H         1 <0>         0.0600 
     35 H8        -26.9561   23.6268   65.6721 H         1 <0>         0.0600 
     36 H9        -28.1324   22.8852   64.6025 H         1 <0>         0.0600 
     37 H10       -34.5758   23.0869   64.3208 H         1 <0>         0.0600 
     38 H11       -33.9810   21.7520   65.3053 H         1 <0>         0.0600 
     39 H12       -35.3849   23.7479   66.4818 H         1 <0>         0.0600 
     40 H13       -33.9487   23.0956   67.2707 H         1 <0>         0.0600 
     41 H14       -32.3356   23.3362   63.7742 H         1 <0>         0.0600 
     42 H15       -31.7603   22.6232   65.2859 H         1 <0>         0.0600 
     43 H16       -34.4959   29.3286   60.5111 H         1 <0>         0.0600 
     44 H17       -33.4076   29.6157   61.8404 H         1 <0>         0.0600 
     45 H18       -33.0862   27.4356   59.7163 H         1 <0>         0.0600 
     46 H19       -32.2214   28.9524   59.7570 H         1 <0>         0.0600 
     47 H20       -31.2288   28.2925   61.9878 H         1 <0>         0.0600 
     48 H21       -31.9785   26.7268   61.8146 H         1 <0>         0.0600 
     49 H22       -30.6807   26.2838   59.7508 H         1 <0>         0.0600 
     50 H23       -30.0809   27.9193   59.7497 H         1 <0>         0.0600 
     51 H24       -34.0539   25.2855   68.3358 H         1 <0>         0.0600 
     52 H25       -32.3355   25.3240   68.0267 H         1 <0>         0.0600 
     53 H26       -27.1694   25.7877   60.9372 H         1 <0>         0.0600 
     54 H27       -28.2808   25.4727   59.6313 H         1 <0>         0.0600 
     55 H28       -34.1753   25.6174   65.6103 H         1 <0>         0.0600 
     56 H29       -29.2250   24.2245   66.4150 H         1 <0>         0.0600 
     57 H30       -28.8135   27.5233   61.8372 H         1 <0>         0.0600 
     58 H31       -30.2208   23.9575   64.1280 H         1 <0>         0.0600 
     59 H32       -29.5561   26.8253   63.7498 H         1 <0>         0.3000 
     60 H33       -27.9713   26.7352   57.6655 H         1 <0>         0.3000 
     61 H34       -32.7162   27.3269   66.9609 H         1 <0>         0.4180 
     62 H35       -26.0849   28.6233   58.2046 H         1 <0>         0.3619 
@<TRIPOS>BOND
     1    1    7 1    
     2    1   28 1    
     3    1   29 1    
     4    1   30 1    
     5    2   14 1    
     6    2   31 1    
     7    2   32 1    
     8    2   33 1    
     9    3   14 1    
    10    3   34 1    
    11    3   35 1    
    12    3   36 1    
    13    4    5 1    
    14    4    6 1    
    15    4   37 1    
    16    4   38 1    
    17    5   13 1    
    18    5   39 1    
    19    5   40 1    
    20    6   22 1    
    21    6   41 1    
    22    6   42 1    
    23    7    8 1    
    24    7   43 1    
    25    7   44 1    
    26    8    9 1    
    27    8   45 1    
    28    8   46 1    
    29    9   10 1    
    30    9   47 1    
    31    9   48 1    
    32   10   15 1    
    33   10   49 1    
    34   10   50 1    
    35   11   13 1    
    36   11   23 1    
    37   11   51 1    
    38   11   52 1    
    39   12   15 1    
    40   12   17 1    
    41   12   53 1    
    42   12   54 1    
    43   13   22 1    
    44   13   55 1    
    45   14   16 1    
    46   14   56 1    
    47   15   18 1    
    48   15   57 1    
    49   16   19 1    
    50   16   20 1    
    51   16   58 1    
    52   17   21 am   BACKBONE|DICT|INTERRES
    53   17   25 2    
    54   18   20 am   BACKBONE|DICT|INTERRES
    55   18   26 2    
    56   19   22 am   BACKBONE|DICT|INTERRES
    57   19   27 2    
    58   20   59 1    
    59   21   24 1    
    60   21   60 1    
    61   23   61 1    
    62   24   62 1    
@<TRIPOS>SUBSTRUCTURE
     1 <0>         1 GROUP             0       ****    0 ROOT    
@<TRIPOS>MOLECULE
BB2_501_1LRU
62   62    1
SMALL
USER_CHARGES


@<TRIPOS>ATOM
      1 C1        -35.0623   28.8708   60.2403 C.3       1 <0>        -0.1800 
      2 C2        -27.9089   26.0251   65.9509 C.3       1 <0>        -0.1800 
      3 C3        -27.4071   23.7732   64.9305 C.3       1 <0>        -0.1800 
      4 C4        -33.6766   22.9080   64.9160 C.3       1 <0>        -0.1200 
      5 C5        -34.0814   23.7058   66.1427 C.3       1 <0>        -0.1200 
      6 C6        -32.2234   23.3043   64.6685 C.3       1 <0>        -0.0500 
      7 C7        -33.8966   27.9421   60.5847 C.3       1 <0>        -0.1200 
      8 C8        -32.8987   28.6244   61.5248 C.3       1 <0>        -0.1200 
      9 C9        -31.7069   27.7433   61.9212 C.3       1 <0>        -0.1200 
     10 C10       -30.7165   27.4838   60.7642 C.3       1 <0>        -0.1200 
     11 C11       -32.9902   25.6016   67.4737 C.3       1 <0>         0.1450 
     12 C12       -28.4890   26.4685   59.9880 C.3       1 <0>        -0.1200 
     13 C13       -33.2366   24.9847   66.0725 C.3       1 <0>         0.0100 
     14 C14       -28.5136   24.6955   65.4701 C.3       1 <0>        -0.0600 
     15 C15       -29.3765   26.8420   61.1991 C.3       1 <0>        -0.0600 
     16 C16       -29.6778   24.8161   64.4398 C.3       1 <0>         0.1400 
     17 C17       -27.7177   27.6526   59.3996 C.2       1 <0>         0.5000 
     18 C18       -29.6124   25.6111   62.0831 C.2       1 <0>         0.5000 
     19 C19       -30.9466   25.3909   65.1243 C.2       1 <0>         0.5000 
     20 N1        -29.2868   25.7388   63.3763 N.am      1 <0>        -0.5000 
     21 N2        -27.8082   27.8239   58.0714 N.am      1 <0>        -0.2244 
     22 N3        -32.0154   24.5887   65.3419 N.am      1 <0>        -0.1400 
     23 O1        -34.2084   26.0088   68.0661 O.3       1 <0>        -0.6830 
     24 O2        -26.6421   28.3277   57.4548 O.3       1 <0>        -0.4375 
     25 O3        -27.0091   28.3498   60.1264 O.2       1 <0>        -0.5000 
     26 O4        -30.1268   24.5952   61.6101 O.2       1 <0>        -0.5000 
     27 O5        -30.9471   26.5782   65.4500 O.2       1 <0>        -0.5000 
     28 H1        -35.6894   28.4520   59.4562 H         1 <0>         0.0600 
     29 H2        -34.6918   29.8233   59.8659 H         1 <0>         0.0600 
     30 H3        -35.6869   29.0651   61.1132 H         1 <0>         0.0600 
     31 H4        -27.5084   26.6231   65.1343 H         1 <0>         0.0600 
     32 H5        -28.6490   26.6234   66.4767 H         1 <0>         0.0600 
     33 H6        -27.0971   25.8543   66.6530 H         1 <0>         0.0600 
     34 H7        -26.9318   24.1929   64.0437 H         1 <0>         0.0600 
     35 H8        -26.6326   23.6092   65.6808 H         1 <0>         0.0600 
     36 H9        -27.8056   22.7948   64.6577 H         1 <0>         0.0600 
     37 H10       -34.2898   23.2060   64.0647 H         1 <0>         0.0600 
     38 H11       -33.8018   21.8324   65.0505 H         1 <0>         0.0600 
     39 H12       -35.1534   23.9081   66.1709 H         1 <0>         0.0600 
     40 H13       -33.8264   23.1360   67.0389 H         1 <0>         0.0600 
     41 H14       -32.0414   23.3835   63.5955 H         1 <0>         0.0600 
     42 H15       -31.5361   22.5538   65.0586 H         1 <0>         0.0600 
     43 H16       -34.2672   27.0260   61.0504 H         1 <0>         0.0600 
     44 H17       -33.3999   27.6392   59.6640 H         1 <0>         0.0600 
     45 H18       -32.5300   29.5324   61.0564 H         1 <0>         0.0600 
     46 H19       -33.4225   28.9386   62.4297 H         1 <0>         0.0600 
     47 H20       -31.1730   28.2241   62.7421 H         1 <0>         0.0600 
     48 H21       -32.0852   26.8046   62.3262 H         1 <0>         0.0600 
     49 H22       -31.1970   26.8554   60.0125 H         1 <0>         0.0600 
     50 H23       -30.4972   28.4297   60.2689 H         1 <0>         0.0600 
     51 H24       -32.5023   24.8859   68.1339 H         1 <0>         0.0600 
     52 H25       -32.3513   26.4815   67.4370 H         1 <0>         0.0600 
     53 H26       -27.7405   25.7273   60.2794 H         1 <0>         0.0600 
     54 H27       -29.0983   25.9917   59.2210 H         1 <0>         0.0600 
     55 H28       -33.7511   25.7162   65.4467 H         1 <0>         0.0600 
     56 H29       -28.9184   24.2175   66.3614 H         1 <0>         0.0600 
     57 H30       -28.8477   27.5755   61.8113 H         1 <0>         0.0600 
     58 H31       -29.8572   23.8292   64.0253 H         1 <0>         0.0600 
     59 H32       -28.9011   26.6198   63.6793 H         1 <0>         0.3000 
     60 H33       -28.2310   27.1209   57.4727 H         1 <0>         0.3000 
     61 H34       -34.7880   25.2628   68.0996 H         1 <0>         0.4180 
     62 H35       -26.9431   28.6146   56.6000 H         1 <0>         0.3619 
@<TRIPOS>BOND
     1    1    7 1    
     2    1   28 1    
     3    1   29 1    
     4    1   30 1    
     5    2   14 1    
     6    2   31 1    
     7    2   32 1    
     8    2   33 1    
     9    3   14 1    
    10    3   34 1    
    11    3   35 1    
    12    3   36 1    
    13    4    5 1    
    14    4    6 1    
    15    4   37 1    
    16    4   38 1    
    17    5   13 1    
    18    5   39 1    
    19    5   40 1    
    20    6   22 1    
    21    6   41 1    
    22    6   42 1    
    23    7    8 1    
    24    7   43 1    
    25    7   44 1    
    26    8    9 1    
    27    8   45 1    
    28    8   46 1    
    29    9   10 1    
    30    9   47 1    
    31    9   48 1    
    32   10   15 1    
    33   10   49 1    
    34   10   50 1    
    35   11   13 1    
    36   11   23 1    
    37   11   51 1    
    38   11   52 1    
    39   12   15 1    
    40   12   17 1    
    41   12   53 1    
    42   12   54 1    
    43   13   22 1    
    44   13   55 1    
    45   14   16 1    
    46   14   56 1    
    47   15   18 1    
    48   15   57 1    
    49   16   19 1    
    50   16   20 1    
    51   16   58 1    
    52   17   21 am   BACKBONE|DICT|INTERRES
    53   17   25 2    
    54   18   20 am   BACKBONE|DICT|INTERRES
    55   18   26 2    
    56   19   22 am   BACKBONE|DICT|INTERRES
    57   19   27 2    
    58   20   59 1    
    59   21   24 1    
    60   21   60 1    
    61   23   61 1    
    62   24   62 1    
@<TRIPOS>SUBSTRUCTURE
     1 <0>         1 GROUP             0       ****    0 ROOT    
@<TRIPOS>MOLECULE
BB2_501_1LRU
62   62    1
SMALL
USER_CHARGES


@<TRIPOS>ATOM
      1 C1        -33.9070   27.9915   63.0079 C.3       1 <0>        -0.1800 
      2 C2        -28.2329   26.0035   65.9148 C.3       1 <0>        -0.1800 
      3 C3        -27.9532   23.8478   64.6338 C.3       1 <0>        -0.1800 
      4 C4        -34.1266   23.3529   65.3418 C.3       1 <0>        -0.1200 
      5 C5        -34.4684   24.2838   66.4889 C.3       1 <0>        -0.1200 
      6 C6        -32.6719   23.6780   65.0244 C.3       1 <0>        -0.0500 
      7 C7        -34.0768   27.2390   61.6861 C.3       1 <0>        -0.1200 
      8 C8        -32.7608   26.6689   61.1307 C.3       1 <0>        -0.1200 
      9 C9        -31.7047   27.7448   60.8039 C.3       1 <0>        -0.1200 
     10 C10       -30.4367   27.2049   60.1059 C.3       1 <0>        -0.1200 
     11 C11       -33.2317   26.2113   67.5974 C.3       1 <0>         0.1450 
     12 C12       -28.0380   26.3046   60.2362 C.3       1 <0>        -0.1200 
     13 C13       -33.5899   25.5243   66.2617 C.3       1 <0>         0.0100 
     14 C14       -28.9616   24.7807   65.3290 C.3       1 <0>        -0.0600 
     15 C15       -29.2663   26.7909   61.0386 C.3       1 <0>        -0.0600 
     16 C16       -30.1587   25.1298   64.4005 C.3       1 <0>         0.1400 
     17 C17       -27.3186   27.4223   59.4887 C.2       1 <0>         0.5000 
     18 C18       -29.6694   25.6832   62.0174 C.2       1 <0>         0.5000 
     19 C19       -31.3457   25.7873   65.1429 C.2       1 <0>         0.5000 
     20 N1        -29.7331   26.0152   63.3163 N.am      1 <0>        -0.5000 
     21 N2        -27.4476   27.4235   58.1598 N.am      1 <0>        -0.2244 
     22 N3        -32.4279   25.0438   65.4904 N.am      1 <0>        -0.1400 
     23 O1        -34.4067   26.6464   68.2535 O.3       1 <0>        -0.6830 
     24 O2        -26.5352   28.2234   57.4535 O.3       1 <0>        -0.4375 
     25 O3        -26.6092   28.2227   60.0961 O.2       1 <0>        -0.5000 
     26 O4        -29.9306   24.5570   61.5927 O.2       1 <0>        -0.5000 
     27 O5        -31.2709   26.9895   65.3979 O.2       1 <0>        -0.5000 
     28 H1        -34.8753   28.2242   63.4464 H         1 <0>         0.0600 
     29 H2        -33.3714   28.9310   62.8748 H         1 <0>         0.0600 
     30 H3        -33.3578   27.3933   63.7311 H         1 <0>         0.0600 
     31 H4        -27.7973   26.6238   65.1323 H         1 <0>         0.0600 
     32 H5        -28.9118   26.6230   66.4968 H         1 <0>         0.0600 
     33 H6        -27.4248   25.6975   66.5802 H         1 <0>         0.0600 
     34 H7        -27.4603   24.3399   63.7941 H         1 <0>         0.0600 
     35 H8        -27.1772   23.5226   65.3283 H         1 <0>         0.0600 
     36 H9        -28.4421   22.9500   64.2531 H         1 <0>         0.0600 
     37 H10       -34.7532   23.5907   64.4800 H         1 <0>         0.0600 
     38 H11       -34.2840   22.3006   65.5865 H         1 <0>         0.0600 
     39 H12       -35.5319   24.5215   66.5313 H         1 <0>         0.0600 
     40 H13       -34.1985   23.7944   67.4270 H         1 <0>         0.0600 
     41 H14       -32.5078   23.5597   63.9529 H         1 <0>         0.0600 
     42 H15       -31.9889   23.0230   65.5578 H         1 <0>         0.0600 
     43 H16       -34.7677   26.4126   61.8519 H         1 <0>         0.0600 
     44 H17       -34.5481   27.8871   60.9494 H         1 <0>         0.0600 
     45 H18       -32.3655   25.9483   61.8469 H         1 <0>         0.0600 
     46 H19       -32.9814   26.1015   60.2245 H         1 <0>         0.0600 
     47 H20       -32.1662   28.4830   60.1460 H         1 <0>         0.0600 
     48 H21       -31.4196   28.2889   61.7051 H         1 <0>         0.0600 
     49 H22       -30.6992   26.3823   59.4384 H         1 <0>         0.0600 
     50 H23       -30.0750   28.0009   59.4538 H         1 <0>         0.0600 
     51 H24       -32.6833   25.5278   68.2486 H         1 <0>         0.0600 
     52 H25       -32.6093   27.0909   67.4492 H         1 <0>         0.0600 
     53 H26       -27.3070   25.8478   60.9070 H         1 <0>         0.0600 
     54 H27       -28.3303   25.5194   59.5373 H         1 <0>         0.0600 
     55 H28       -34.1326   26.2274   65.6267 H         1 <0>         0.0600 
     56 H29       -29.3669   24.2235   66.1746 H         1 <0>         0.0600 
     57 H30       -28.9746   27.6666   61.6242 H         1 <0>         0.0600 
     58 H31       -30.4776   24.1879   63.9639 H         1 <0>         0.0600 
     59 H32       -29.5420   26.9733   63.5789 H         1 <0>         0.3000 
     60 H33       -27.9362   26.7686   57.5563 H         1 <0>         0.3000 
     61 H34       -35.0056   25.9140   68.3017 H         1 <0>         0.4180 
     62 H35       -26.0469   28.6406   58.1512 H         1 <0>         0.3619 
@<TRIPOS>BOND
     1    1    7 1    
     2    1   28 1    
     3    1   29 1    
     4    1   30 1    
     5    2   14 1    
     6    2   31 1    
     7    2   32 1    
     8    2   33 1    
     9    3   14 1    
    10    3   34 1    
    11    3   35 1    
    12    3   36 1    
    13    4    5 1    
    14    4    6 1    
    15    4   37 1    
    16    4   38 1    
    17    5   13 1    
    18    5   39 1    
    19    5   40 1    
    20    6   22 1    
    21    6   41 1    
    22    6   42 1    
    23    7    8 1    
    24    7   43 1    
    25    7   44 1    
    26    8    9 1    
    27    8   45 1    
    28    8   46 1    
    29    9   10 1    
    30    9   47 1    
    31    9   48 1    
    32   10   15 1    
    33   10   49 1    
    34   10   50 1    
    35   11   13 1    
    36   11   23 1    
    37   11   51 1    
    38   11   52 1    
    39   12   15 1    
    40   12   17 1    
    41   12   53 1    
    42   12   54 1    
    43   13   22 1    
    44   13   55 1    
    45   14   16 1    
    46   14   56 1    
    47   15   18 1    
    48   15   57 1    
    49   16   19 1    
    50   16   20 1    
    51   16   58 1    
    52   17   21 am   BACKBONE|DICT|INTERRES
    53   17   25 2    
    54   18   20 am   BACKBONE|DICT|INTERRES
    55   18   26 2    
    56   19   22 am   BACKBONE|DICT|INTERRES
    57   19   27 2    
    58   20   59 1    
    59   21   24 1    
    60   21   60 1    
    61   23   61 1    
    62   24   62 1    
@<TRIPOS>SUBSTRUCTURE
     1 <0>         1 GROUP             0       ****    0 ROOT    
@<TRIPOS>MOLECULE
BB2_501_1LRU
62   62    1
SMALL
USER_CHARGES


@<TRIPOS>ATOM
      1 C1        -35.0647   28.9212   60.1637 C.3       1 <0>        -0.1800 
      2 C2        -27.8658   25.9329   65.9458 C.3       1 <0>        -0.1800 
      3 C3        -27.5540   23.6631   64.8681 C.3       1 <0>        -0.1800 
      4 C4        -33.7068   22.8618   64.9539 C.3       1 <0>        -0.1200 
      5 C5        -34.1786   23.6372   66.1798 C.3       1 <0>        -0.1200 
      6 C6        -32.2445   23.2807   64.7830 C.3       1 <0>        -0.0500 
      7 C7        -33.9079   28.0230   60.6153 C.3       1 <0>        -0.1200 
      8 C8        -32.9748   28.7218   61.6145 C.3       1 <0>        -0.1200 
      9 C9        -31.7834   27.8427   62.0201 C.3       1 <0>        -0.1200 
     10 C10       -30.7943   27.6190   60.8604 C.3       1 <0>        -0.1200 
     11 C11       -33.0449   25.4327   67.5534 C.3       1 <0>         0.1450 
     12 C12       -28.6695   26.4902   60.0219 C.3       1 <0>        -0.1200 
     13 C13       -33.3575   24.9286   66.1474 C.3       1 <0>         0.0100 
     14 C14       -28.5699   24.6438   65.4785 C.3       1 <0>        -0.0600 
     15 C15       -29.4814   26.9133   61.2716 C.3       1 <0>        -0.0600 
     16 C16       -29.7886   24.9043   64.5459 C.3       1 <0>         0.1400 
     17 C17       -27.7570   27.5983   59.4798 C.2       1 <0>         0.5000 
     18 C18       -29.7603   25.6939   62.1664 C.2       1 <0>         0.5000 
     19 C19       -31.0421   25.4174   65.2863 C.2       1 <0>         0.5000 
     20 N1        -29.4383   25.8226   63.4610 N.am      1 <0>        -0.5000 
     21 N2        -27.8046   27.8223   58.1594 N.am      1 <0>        -0.2244 
     22 N3        -32.1457   24.5971   65.4032 N.am      1 <0>        -0.1400 
     23 O1        -34.1927   25.9439   68.2016 O.3       1 <0>        -0.6830 
     24 O2        -26.6569   28.4381   57.6166 O.3       1 <0>        -0.4375 
     25 O3        -26.9919   28.1969   60.2373 O.2       1 <0>        -0.5000 
     26 O4        -30.2370   24.6665   61.6846 O.2       1 <0>        -0.5000 
     27 O5        -31.0205   26.5504   65.7731 O.2       1 <0>        -0.5000 
     28 H1        -35.7087   28.3986   59.4560 H         1 <0>         0.0600 
     29 H2        -34.6957   29.8228   59.6741 H         1 <0>         0.0600 
     30 H3        -35.6803   29.2266   61.0102 H         1 <0>         0.0600 
     31 H4        -27.4176   26.4730   65.1115 H         1 <0>         0.0600 
     32 H5        -28.5580   26.6096   66.4470 H         1 <0>         0.0600 
     33 H6        -27.0677   25.7059   66.6531 H         1 <0>         0.0600 
     34 H7        -27.0581   24.0867   63.9956 H         1 <0>         0.0600 
     35 H8        -26.7786   23.4037   65.5892 H         1 <0>         0.0600 
     36 H9        -28.0370   22.7357   64.5590 H         1 <0>         0.0600 
     37 H10       -34.2813   23.1730   64.0815 H         1 <0>         0.0600 
     38 H11       -33.8278   21.7839   65.0618 H         1 <0>         0.0600 
     39 H12       -35.2532   23.8197   66.1783 H         1 <0>         0.0600 
     40 H13       -33.9402   23.0745   67.0823 H         1 <0>         0.0600 
     41 H14       -31.9523   23.2992   63.7330 H         1 <0>         0.0600 
     42 H15       -31.5816   22.5907   65.3051 H         1 <0>         0.0600 
     43 H16       -34.3126   27.1155   61.0649 H         1 <0>         0.0600 
     44 H17       -33.3375   27.7062   59.7413 H         1 <0>         0.0600 
     45 H18       -32.6069   29.6513   61.1779 H         1 <0>         0.0600 
     46 H19       -33.5403   29.0011   62.5045 H         1 <0>         0.0600 
     47 H20       -31.2605   28.3061   62.8577 H         1 <0>         0.0600 
     48 H21       -32.1583   26.8850   62.3829 H         1 <0>         0.0600 
     49 H22       -31.2857   27.0551   60.0658 H         1 <0>         0.0600 
     50 H23       -30.5495   28.5894   60.4269 H         1 <0>         0.0600 
     51 H24       -32.6072   24.6486   68.1712 H         1 <0>         0.0600 
     52 H25       -32.3032   26.2301   67.4991 H         1 <0>         0.0600 
     53 H26       -28.0861   25.5925   60.2345 H         1 <0>         0.0600 
     54 H27       -29.3527   26.2199   59.2163 H         1 <0>         0.0600 
     55 H28       -33.8944   25.7163   65.6188 H         1 <0>         0.0600 
     56 H29       -28.9489   24.1582   66.3786 H         1 <0>         0.0600 
     57 H30       -28.8912   27.6359   61.8388 H         1 <0>         0.0600 
     58 H31       -30.0636   23.9572   64.0816 H         1 <0>         0.0600 
     59 H32       -28.8993   26.6325   63.7330 H         1 <0>         0.3000 
     60 H33       -28.2734   27.2553   57.4672 H         1 <0>         0.3000 
     61 H34       -34.8468   25.2625   68.2377 H         1 <0>         0.4180 
     62 H35       -26.9436   28.6916   56.7503 H         1 <0>         0.3619 
@<TRIPOS>BOND
     1    1    7 1    
     2    1   28 1    
     3    1   29 1    
     4    1   30 1    
     5    2   14 1    
     6    2   31 1    
     7    2   32 1    
     8    2   33 1    
     9    3   14 1    
    10    3   34 1    
    11    3   35 1    
    12    3   36 1    
    13    4    5 1    
    14    4    6 1    
    15    4   37 1    
    16    4   38 1    
    17    5   13 1    
    18    5   39 1    
    19    5   40 1    
    20    6   22 1    
    21    6   41 1    
    22    6   42 1    
    23    7    8 1    
    24    7   43 1    
    25    7   44 1    
    26    8    9 1    
    27    8   45 1    
    28    8   46 1    
    29    9   10 1    
    30    9   47 1    
    31    9   48 1    
    32   10   15 1    
    33   10   49 1    
    34   10   50 1    
    35   11   13 1    
    36   11   23 1    
    37   11   51 1    
    38   11   52 1    
    39   12   15 1    
    40   12   17 1    
    41   12   53 1    
    42   12   54 1    
    43   13   22 1    
    44   13   55 1    
    45   14   16 1    
    46   14   56 1    
    47   15   18 1    
    48   15   57 1    
    49   16   19 1    
    50   16   20 1    
    51   16   58 1    
    52   17   21 am   BACKBONE|DICT|INTERRES
    53   17   25 2    
    54   18   20 am   BACKBONE|DICT|INTERRES
    55   18   26 2    
    56   19   22 am   BACKBONE|DICT|INTERRES
    57   19   27 2    
    58   20   59 1    
    59   21   24 1    
    60   21   60 1    
    61   23   61 1    
    62   24   62 1    
@<TRIPOS>SUBSTRUCTURE
     1 <0>         1 GROUP             0       ****    0 ROOT    
@<TRIPOS>MOLECULE
BB2_501_1LRU
62   62    1
SMALL
USER_CHARGES


@<TRIPOS>ATOM
      1 C1        -35.0502   29.0164   60.3572 C.3       1 <0>        -0.1800 
      2 C2        -28.1571   26.0180   66.1652 C.3       1 <0>        -0.1800 
      3 C3        -27.6709   23.8250   65.0186 C.3       1 <0>        -0.1800 
      4 C4        -33.8407   22.9447   65.2713 C.3       1 <0>        -0.1200 
      5 C5        -34.2460   23.8088   66.4507 C.3       1 <0>        -0.1200 
      6 C6        -32.4015   23.3611   64.9769 C.3       1 <0>        -0.0500 
      7 C7        -33.9385   28.4809   61.2654 C.3       1 <0>        -0.1200 
      8 C8        -32.7424   27.9714   60.4476 C.3       1 <0>        -0.1200 
      9 C9        -31.5850   27.4596   61.3125 C.3       1 <0>        -0.1200 
     10 C10       -30.3573   27.0866   60.4595 C.3       1 <0>        -0.1200 
     11 C11       -33.1628   25.8070   67.6236 C.3       1 <0>         0.1450 
     12 C12       -27.8839   26.4121   60.3529 C.3       1 <0>        -0.1200 
     13 C13       -33.4470   25.1089   66.2723 C.3       1 <0>         0.0100 
     14 C14       -28.7734   24.7347   65.5890 C.3       1 <0>        -0.0600 
     15 C15       -29.0824   26.7465   61.2689 C.3       1 <0>        -0.0600 
     16 C16       -29.9231   24.9629   64.5665 C.3       1 <0>         0.1400 
     17 C17       -27.4127   27.5949   59.5123 C.2       1 <0>         0.5000 
     18 C18       -29.3440   25.5736   62.2206 C.2       1 <0>         0.5000 
     19 C19       -31.2018   25.5355   65.2190 C.2       1 <0>         0.5000 
     20 N1        -29.4968   25.8821   63.5147 N.am      1 <0>        -0.5000 
     21 N2        -27.4199   27.4235   58.1895 N.am      1 <0>        -0.2244 
     22 N3        -32.2364   24.7123   65.5239 N.am      1 <0>        -0.1400 
     23 O1        -34.3671   26.1937   68.2522 O.3       1 <0>        -0.6830 
     24 O2        -26.6099   28.3018   57.4533 O.3       1 <0>        -0.4375 
     25 O3        -27.0093   28.6238   60.0525 O.2       1 <0>        -0.5000 
     26 O4        -29.4360   24.4299   61.7782 O.2       1 <0>        -0.5000 
     27 O5        -31.2353   26.7433   65.4557 O.2       1 <0>        -0.5000 
     28 H1        -35.8972   29.3779   60.9404 H         1 <0>         0.0600 
     29 H2        -35.4091   28.2307   59.6962 H         1 <0>         0.0600 
     30 H3        -34.6870   29.8257   59.7330 H         1 <0>         0.0600 
     31 H4        -27.6742   26.6226   65.3979 H         1 <0>         0.0600 
     32 H5        -28.9188   26.6233   66.6524 H         1 <0>         0.0600 
     33 H6        -27.4095   25.7848   66.9216 H         1 <0>         0.0600 
     34 H7        -27.1508   24.3013   64.1881 H         1 <0>         0.0600 
     35 H8        -26.9283   23.5827   65.7780 H         1 <0>         0.0600 
     36 H9        -28.0841   22.8854   64.6530 H         1 <0>         0.0600 
     37 H10       -34.4730   23.1772   64.4134 H         1 <0>         0.0600 
     38 H11       -33.9354   21.8767   65.4715 H         1 <0>         0.0600 
     39 H12       -35.3212   23.9752   66.4934 H         1 <0>         0.0600 
     40 H13       -33.9471   23.3097   67.3734 H         1 <0>         0.0600 
     41 H14       -32.2277   23.3325   63.8997 H         1 <0>         0.0600 
     42 H15       -31.6889   22.6874   65.4492 H         1 <0>         0.0600 
     43 H16       -33.6136   29.2715   61.9444 H         1 <0>         0.0600 
     44 H17       -34.3307   27.6785   61.8920 H         1 <0>         0.0600 
     45 H18       -33.0712   27.1784   59.7768 H         1 <0>         0.0600 
     46 H19       -32.3711   28.7777   59.8186 H         1 <0>         0.0600 
     47 H20       -31.3038   28.2247   62.0366 H         1 <0>         0.0600 
     48 H21       -31.9264   26.5992   61.8904 H         1 <0>         0.0600 
     49 H22       -30.6117   26.2530   59.8024 H         1 <0>         0.0600 
     50 H23       -30.1427   27.9269   59.7977 H         1 <0>         0.0600 
     51 H24       -32.6022   25.1491   68.2875 H         1 <0>         0.0600 
     52 H25       -32.5752   26.7138   67.4956 H         1 <0>         0.0600 
     53 H26       -27.0365   26.0808   60.9564 H         1 <0>         0.0600 
     54 H27       -28.1354   25.5742   59.6973 H         1 <0>         0.0600 
     55 H28       -34.0085   25.7869   65.6250 H         1 <0>         0.0600 
     56 H29       -29.2110   24.2222   66.4445 H         1 <0>         0.0600 
     57 H30       -28.8214   27.6186   61.8721 H         1 <0>         0.0600 
     58 H31       -30.1402   23.9961   64.1203 H         1 <0>         0.0600 
     59 H32       -29.4417   26.8544   63.7832 H         1 <0>         0.3000 
     60 H33       -27.6806   26.6051   57.6511 H         1 <0>         0.3000 
     61 H34       -34.9095   25.4262   68.3563 H         1 <0>         0.4180 
     62 H35       -26.2822   28.8899   58.1221 H         1 <0>         0.3619 
@<TRIPOS>BOND
     1    1    7 1    
     2    1   28 1    
     3    1   29 1    
     4    1   30 1    
     5    2   14 1    
     6    2   31 1    
     7    2   32 1    
     8    2   33 1    
     9    3   14 1    
    10    3   34 1    
    11    3   35 1    
    12    3   36 1    
    13    4    5 1    
    14    4    6 1    
    15    4   37 1    
    16    4   38 1    
    17    5   13 1    
    18    5   39 1    
    19    5   40 1    
    20    6   22 1    
    21    6   41 1    
    22    6   42 1    
    23    7    8 1    
    24    7   43 1    
    25    7   44 1    
    26    8    9 1    
    27    8   45 1    
    28    8   46 1    
    29    9   10 1    
    30    9   47 1    
    31    9   48 1    
    32   10   15 1    
    33   10   49 1    
    34   10   50 1    
    35   11   13 1    
    36   11   23 1    
    37   11   51 1    
    38   11   52 1    
    39   12   15 1    
    40   12   17 1    
    41   12   53 1    
    42   12   54 1    
    43   13   22 1    
    44   13   55 1    
    45   14   16 1    
    46   14   56 1    
    47   15   18 1    
    48   15   57 1    
    49   16   19 1    
    50   16   20 1    
    51   16   58 1    
    52   17   21 am   BACKBONE|DICT|INTERRES
    53   17   25 2    
    54   18   20 am   BACKBONE|DICT|INTERRES
    55   18   26 2    
    56   19   22 am   BACKBONE|DICT|INTERRES
    57   19   27 2    
    58   20   59 1    
    59   21   24 1    
    60   21   60 1    
    61   23   61 1    
    62   24   62 1    
@<TRIPOS>SUBSTRUCTURE
     1 <0>         1 GROUP             0       ****    0 ROOT    
@<TRIPOS>MOLECULE
BB2_501_1LRU
62   62    1
SMALL
USER_CHARGES


@<TRIPOS>ATOM
      1 C1        -35.0528   29.0176   60.1076 C.3       1 <0>        -0.1800 
      2 C2        -28.1460   26.0119   66.1549 C.3       1 <0>        -0.1800 
      3 C3        -27.6940   23.8337   64.9703 C.3       1 <0>        -0.1800 
      4 C4        -33.8380   23.2288   65.4535 C.3       1 <0>        -0.1200 
      5 C5        -34.2707   24.2584   66.4794 C.3       1 <0>        -0.1200 
      6 C6        -32.3730   23.5623   65.1903 C.3       1 <0>        -0.0500 
      7 C7        -33.9701   28.0326   60.5574 C.3       1 <0>        -0.1200 
      8 C8        -32.9547   28.6913   61.5038 C.3       1 <0>        -0.1200 
      9 C9        -31.7784   27.7889   61.8961 C.3       1 <0>        -0.1200 
     10 C10       -30.7377   27.5940   60.7664 C.3       1 <0>        -0.1200 
     11 C11       -33.0488   26.2247   67.5334 C.3       1 <0>         0.1450 
     12 C12       -28.5020   26.5711   60.0222 C.3       1 <0>        -0.1200 
     13 C13       -33.3810   25.4875   66.2156 C.3       1 <0>         0.0100 
     14 C14       -28.7853   24.7594   65.5370 C.3       1 <0>        -0.0600 
     15 C15       -29.3941   26.9656   61.2219 C.3       1 <0>        -0.0600 
     16 C16       -29.8926   25.0285   64.4797 C.3       1 <0>         0.1400 
     17 C17       -27.7432   27.7334   59.3788 C.2       1 <0>         0.5000 
     18 C18       -29.6281   25.7455   62.1187 C.2       1 <0>         0.5000 
     19 C19       -31.1257   25.7174   65.1248 C.2       1 <0>         0.5000 
     20 N1        -29.3860   25.9109   63.4278 N.am      1 <0>        -0.5000 
     21 N2        -27.8085   27.8232   58.0443 N.am      1 <0>        -0.2244 
     22 N3        -32.1896   24.9734   65.5098 N.am      1 <0>        -0.1400 
     23 O1        -34.2095   26.8109   68.0894 O.3       1 <0>        -0.6830 
     24 O2        -26.6162   28.2911   57.4530 O.3       1 <0>        -0.4375 
     25 O3        -27.0187   28.4603   60.0595 O.2       1 <0>        -0.5000 
     26 O4        -30.0692   24.7019   61.6369 O.2       1 <0>        -0.5000 
     27 O5        -31.1032   26.9412   65.2713 O.2       1 <0>        -0.5000 
     28 H1        -35.7812   28.5434   59.4561 H         1 <0>         0.0600 
     29 H2        -34.6109   29.8243   59.5345 H         1 <0>         0.0600 
     30 H3        -35.5875   29.4409   60.9573 H         1 <0>         0.0600 
     31 H4        -27.6406   26.6233   65.4104 H         1 <0>         0.0600 
     32 H5        -28.8946   26.6232   66.6525 H         1 <0>         0.0600 
     33 H6        -27.4094   25.7362   66.9107 H         1 <0>         0.0600 
     34 H7        -27.1293   24.3179   64.1729 H         1 <0>         0.0600 
     35 H8        -26.9859   23.5407   65.7473 H         1 <0>         0.0600 
     36 H9        -28.1235   22.9189   64.5610 H         1 <0>         0.0600 
     37 H10       -34.4158   23.3586   64.5341 H         1 <0>         0.0600 
     38 H11       -33.9857   22.2039   65.7944 H         1 <0>         0.0600 
     39 H12       -35.3332   24.4933   66.4175 H         1 <0>         0.0600 
     40 H13       -34.0820   23.8594   67.4774 H         1 <0>         0.0600 
     41 H14       -32.1306   23.3114   64.1571 H         1 <0>         0.0600 
     42 H15       -31.7047   23.0235   65.8532 H         1 <0>         0.0600 
     43 H16       -34.4302   27.1798   61.0596 H         1 <0>         0.0600 
     44 H17       -33.4646   27.6362   59.6773 H         1 <0>         0.0600 
     45 H18       -32.5645   29.6000   61.0553 H         1 <0>         0.0600 
     46 H19       -33.4741   29.0035   62.4113 H         1 <0>         0.0600 
     47 H20       -31.2770   28.2235   62.7602 H         1 <0>         0.0600 
     48 H21       -32.1681   26.8248   62.2314 H         1 <0>         0.0600 
     49 H22       -31.1814   26.9912   59.9725 H         1 <0>         0.0600 
     50 H23       -30.5245   28.5663   60.3208 H         1 <0>         0.0600 
     51 H24       -32.6089   25.5340   68.2532 H         1 <0>         0.0600 
     52 H25       -32.3281   27.0233   67.3867 H         1 <0>         0.0600 
     53 H26       -27.7486   25.8458   60.3351 H         1 <0>         0.0600 
     54 H27       -29.1055   26.0590   59.2744 H         1 <0>         0.0600 
     55 H28       -33.8904   26.1675   65.5290 H         1 <0>         0.0600 
     56 H29       -29.2553   24.2230   66.3613 H         1 <0>         0.0600 
     57 H30       -28.8688   27.7109   61.8245 H         1 <0>         0.0600 
     58 H31       -30.1604   24.0705   64.0395 H         1 <0>         0.0600 
     59 H32       -29.0525   26.8141   63.7368 H         1 <0>         0.3000 
     60 H33       -28.2169   27.0954   57.4665 H         1 <0>         0.3000 
     61 H34       -34.6144   27.3434   67.4212 H         1 <0>         0.4180 
     62 H35       -26.0850   28.5027   58.2090 H         1 <0>         0.3619 
@<TRIPOS>BOND
     1    1    7 1    
     2    1   28 1    
     3    1   29 1    
     4    1   30 1    
     5    2   14 1    
     6    2   31 1    
     7    2   32 1    
     8    2   33 1    
     9    3   14 1    
    10    3   34 1    
    11    3   35 1    
    12    3   36 1    
    13    4    5 1    
    14    4    6 1    
    15    4   37 1    
    16    4   38 1    
    17    5   13 1    
    18    5   39 1    
    19    5   40 1    
    20    6   22 1    
    21    6   41 1    
    22    6   42 1    
    23    7    8 1    
    24    7   43 1    
    25    7   44 1    
    26    8    9 1    
    27    8   45 1    
    28    8   46 1    
    29    9   10 1    
    30    9   47 1    
    31    9   48 1    
    32   10   15 1    
    33   10   49 1    
    34   10   50 1    
    35   11   13 1    
    36   11   23 1    
    37   11   51 1    
    38   11   52 1    
    39   12   15 1    
    40   12   17 1    
    41   12   53 1    
    42   12   54 1    
    43   13   22 1    
    44   13   55 1    
    45   14   16 1    
    46   14   56 1    
    47   15   18 1    
    48   15   57 1    
    49   16   19 1    
    50   16   20 1    
    51   16   58 1    
    52   17   21 am   BACKBONE|DICT|INTERRES
    53   17   25 2    
    54   18   20 am   BACKBONE|DICT|INTERRES
    55   18   26 2    
    56   19   22 am   BACKBONE|DICT|INTERRES
    57   19   27 2    
    58   20   59 1    
    59   21   24 1    
    60   21   60 1    
    61   23   61 1    
    62   24   62 1    
@<TRIPOS>SUBSTRUCTURE
     1 <0>         1 GROUP             0       ****    0 ROOT    
@<TRIPOS>MOLECULE
BB2_501_1LRU
62   62    1
SMALL
USER_CHARGES


@<TRIPOS>ATOM
      1 C1        -35.0230   29.0041   60.4575 C.3       1 <0>        -0.1800 
      2 C2        -28.1981   25.8286   66.3301 C.3       1 <0>        -0.1800 
      3 C3        -27.4486   23.9074   64.8632 C.3       1 <0>        -0.1800 
      4 C4        -33.7683   22.9100   65.2713 C.3       1 <0>        -0.1200 
      5 C5        -34.1416   23.7766   66.4617 C.3       1 <0>        -0.1200 
      6 C6        -32.3226   23.2990   64.9719 C.3       1 <0>        -0.0500 
      7 C7        -33.8828   28.4737   61.3330 C.3       1 <0>        -0.1200 
      8 C8        -32.6990   27.9815   60.4896 C.3       1 <0>        -0.1200 
      9 C9        -31.5277   27.4566   61.3271 C.3       1 <0>        -0.1200 
     10 C10       -30.3384   27.0359   60.4401 C.3       1 <0>        -0.1200 
     11 C11       -33.0158   25.7585   67.6182 C.3       1 <0>         0.1450 
     12 C12       -27.9113   26.2135   60.2671 C.3       1 <0>        -0.1200 
     13 C13       -33.3268   25.0630   66.2714 C.3       1 <0>         0.0100 
     14 C14       -28.6517   24.5947   65.5346 C.3       1 <0>        -0.0600 
     15 C15       -29.0625   26.6185   61.2153 C.3       1 <0>        -0.0600 
     16 C16       -29.8194   24.8398   64.5358 C.3       1 <0>         0.1400 
     17 C17       -27.2880   27.3935   59.5276 C.2       1 <0>         0.5000 
     18 C18       -29.3613   25.4604   62.1711 C.2       1 <0>         0.5000 
     19 C19       -31.0795   25.4441   65.2051 C.2       1 <0>         0.5000 
     20 N1        -29.3967   25.7568   63.4780 N.am      1 <0>        -0.5000 
     21 N2        -27.4568   27.4235   58.2024 N.am      1 <0>        -0.2244 
     22 N3        -32.1319   24.6453   65.5143 N.am      1 <0>        -0.1400 
     23 O1        -34.2089   26.1729   68.2525 O.3       1 <0>        -0.6830 
     24 O2        -26.6102   28.2935   57.4971 O.3       1 <0>        -0.4375 
     25 O3        -26.6104   28.2235   60.1307 O.2       1 <0>        -0.5000 
     26 O4        -29.5785   24.3347   61.7227 O.2       1 <0>        -0.5000 
     27 O5        -31.0864   26.6541   65.4390 O.2       1 <0>        -0.5000 
     28 H1        -35.8554   29.3684   61.0588 H         1 <0>         0.0600 
     29 H2        -35.4092   28.2209   59.8057 H         1 <0>         0.0600 
     30 H3        -34.6818   29.8200   59.8219 H         1 <0>         0.0600 
     31 H4        -27.8289   26.6218   65.6828 H         1 <0>         0.0600 
     32 H5        -29.0092   26.2235   66.9332 H         1 <0>         0.0600 
     33 H6        -27.4093   25.5669   67.0310 H         1 <0>         0.0600 
     34 H7        -26.9613   24.5561   64.1343 H         1 <0>         0.0600 
     35 H8        -26.6981   23.6218   65.6035 H         1 <0>         0.0600 
     36 H9        -27.7554   22.9972   64.3493 H         1 <0>         0.0600 
     37 H10       -34.4034   23.1630   64.4226 H         1 <0>         0.0600 
     38 H11       -33.8903   21.8440   65.4650 H         1 <0>         0.0600 
     39 H12       -35.2127   23.9628   66.5187 H         1 <0>         0.0600 
     40 H13       -33.8428   23.2726   67.3808 H         1 <0>         0.0600 
     41 H14       -32.1519   23.2558   63.8967 H         1 <0>         0.0600 
     42 H15       -31.6215   22.6236   65.4528 H         1 <0>         0.0600 
     43 H16       -33.5523   29.2600   62.0126 H         1 <0>         0.0600 
     44 H17       -34.2558   27.6607   61.9598 H         1 <0>         0.0600 
     45 H18       -33.0386   27.1951   59.8172 H         1 <0>         0.0600 
     46 H19       -32.3396   28.7920   59.8567 H         1 <0>         0.0600 
     47 H20       -31.2012   28.2229   62.0302 H         1 <0>         0.0600 
     48 H21       -31.8733   26.6142   61.9280 H         1 <0>         0.0600 
     49 H22       -30.6507   26.2218   59.7830 H         1 <0>         0.0600 
     50 H23       -30.0904   27.8724   59.7830 H         1 <0>         0.0600 
     51 H24       -32.4624   25.0953   68.2842 H         1 <0>         0.0600 
     52 H25       -32.4080   26.6506   67.4808 H         1 <0>         0.0600 
     53 H26       -27.1082   25.7406   60.8341 H         1 <0>         0.0600 
     54 H27       -28.2537   25.4672   59.5486 H         1 <0>         0.0600 
     55 H28       -33.8847   25.7531   65.6313 H         1 <0>         0.0600 
     56 H29       -29.0182   23.8873   66.2763 H         1 <0>         0.0600 
     57 H30       -28.7354   27.4733   61.8122 H         1 <0>         0.0600 
     58 H31       -30.0520   23.8714   64.0980 H         1 <0>         0.0600 
     59 H32       -29.2561   26.7174   63.7597 H         1 <0>         0.3000 
     60 H33       -27.9224   26.7549   57.5952 H         1 <0>         0.3000 
     61 H34       -34.7603   25.4134   68.3624 H         1 <0>         0.4180 
     62 H35       -26.1314   28.7230   58.1930 H         1 <0>         0.3619 
@<TRIPOS>BOND
     1    1    7 1    
     2    1   28 1    
     3    1   29 1    
     4    1   30 1    
     5    2   14 1    
     6    2   31 1    
     7    2   32 1    
     8    2   33 1    
     9    3   14 1    
    10    3   34 1    
    11    3   35 1    
    12    3   36 1    
    13    4    5 1    
    14    4    6 1    
    15    4   37 1    
    16    4   38 1    
    17    5   13 1    
    18    5   39 1    
    19    5   40 1    
    20    6   22 1    
    21    6   41 1    
    22    6   42 1    
    23    7    8 1    
    24    7   43 1    
    25    7   44 1    
    26    8    9 1    
    27    8   45 1    
    28    8   46 1    
    29    9   10 1    
    30    9   47 1    
    31    9   48 1    
    32   10   15 1    
    33   10   49 1    
    34   10   50 1    
    35   11   13 1    
    36   11   23 1    
    37   11   51 1    
    38   11   52 1    
    39   12   15 1    
    40   12   17 1    
    41   12   53 1    
    42   12   54 1    
    43   13   22 1    
    44   13   55 1    
    45   14   16 1    
    46   14   56 1    
    47   15   18 1    
    48   15   57 1    
    49   16   19 1    
    50   16   20 1    
    51   16   58 1    
    52   17   21 am   BACKBONE|DICT|INTERRES
    53   17   25 2    
    54   18   20 am   BACKBONE|DICT|INTERRES
    55   18   26 2    
    56   19   22 am   BACKBONE|DICT|INTERRES
    57   19   27 2    
    58   20   59 1    
    59   21   24 1    
    60   21   60 1    
    61   23   61 1    
    62   24   62 1    
@<TRIPOS>SUBSTRUCTURE
     1 <0>         1 GROUP             0       ****    0 ROOT    
@<TRIPOS>MOLECULE
BB2_501_1LRU
62   62    1
SMALL
USER_CHARGES


@<TRIPOS>ATOM
      1 C1        -34.9772   28.8736   60.2283 C.3       1 <0>        -0.1800 
      2 C2        -28.1060   26.0302   66.1686 C.3       1 <0>        -0.1800 
      3 C3        -27.4074   23.8410   65.1282 C.3       1 <0>        -0.1800 
      4 C4        -33.6503   22.7399   64.8741 C.3       1 <0>        -0.1200 
      5 C5        -34.0937   23.5147   66.1059 C.3       1 <0>        -0.1200 
      6 C6        -32.2019   23.1752   64.6545 C.3       1 <0>        -0.0500 
      7 C7        -33.8123   27.9433   60.5841 C.3       1 <0>        -0.1200 
      8 C8        -32.8139   28.6226   61.5301 C.3       1 <0>        -0.1200 
      9 C9        -31.6353   27.7341   61.9554 C.3       1 <0>        -0.1200 
     10 C10       -30.6290   27.4572   60.8151 C.3       1 <0>        -0.1200 
     11 C11       -33.0366   25.4044   67.4741 C.3       1 <0>         0.1450 
     12 C12       -28.3790   26.4687   60.0692 C.3       1 <0>        -0.1200 
     13 C13       -33.2765   24.8136   66.0615 C.3       1 <0>         0.0100 
     14 C14       -28.6028   24.6880   65.6000 C.3       1 <0>        -0.0600 
     15 C15       -29.2908   26.8224   61.2704 C.3       1 <0>        -0.0600 
     16 C16       -29.6968   24.7825   64.4922 C.3       1 <0>         0.1400 
     17 C17       -27.6855   27.6846   59.4361 C.2       1 <0>         0.5000 
     18 C18       -29.5340   25.5861   62.1447 C.2       1 <0>         0.5000 
     19 C19       -31.0166   25.3158   65.1050 C.2       1 <0>         0.5000 
     20 N1        -29.2645   25.7167   63.4510 N.am      1 <0>        -0.5000 
     21 N2        -27.8090   27.8236   58.1051 N.am      1 <0>        -0.2244 
     22 N3        -32.0455   24.4648   65.3322 N.am      1 <0>        -0.1400 
     23 O1        -34.2523   25.8487   68.0415 O.3       1 <0>        -0.6830 
     24 O2        -26.6823   28.3760   57.4541 O.3       1 <0>        -0.4375 
     25 O3        -27.0089   28.4331   60.1331 O.2       1 <0>        -0.5000 
     26 O4        -30.0039   24.5617   61.6469 O.2       1 <0>        -0.5000 
     27 O5        -31.0962   26.5155   65.3770 O.2       1 <0>        -0.5000 
     28 H1        -35.6060   28.4436   59.4533 H         1 <0>         0.0600 
     29 H2        -34.6133   29.8231   59.8503 H         1 <0>         0.0600 
     30 H3        -35.5993   29.0742   61.0992 H         1 <0>         0.0600 
     31 H4        -27.5903   26.6228   65.4135 H         1 <0>         0.0600 
     32 H5        -28.9182   26.6233   66.5762 H         1 <0>         0.0600 
     33 H6        -27.4124   25.8713   66.9905 H         1 <0>         0.0600 
     34 H7        -26.8800   24.3197   64.3025 H         1 <0>         0.0600 
     35 H8        -26.6893   23.6875   65.9324 H         1 <0>         0.0600 
     36 H9        -27.7276   22.8549   64.7895 H         1 <0>         0.0600 
     37 H10       -34.2552   23.0338   64.0124 H         1 <0>         0.0600 
     38 H11       -33.7522   21.6586   64.9874 H         1 <0>         0.0600 
     39 H12       -35.1703   23.6894   66.1240 H         1 <0>         0.0600 
     40 H13       -33.8335   22.9332   66.9938 H         1 <0>         0.0600 
     41 H14       -32.0066   23.2646   63.5839 H         1 <0>         0.0600 
     42 H15       -31.5037   22.4422   65.0536 H         1 <0>         0.0600 
     43 H16       -34.1977   27.0335   61.0471 H         1 <0>         0.0600 
     44 H17       -33.3091   27.6407   59.6663 H         1 <0>         0.0600 
     45 H18       -32.4258   29.5197   61.0531 H         1 <0>         0.0600 
     46 H19       -33.3468   28.9494   62.4246 H         1 <0>         0.0600 
     47 H20       -31.1095   28.2231   62.7760 H         1 <0>         0.0600 
     48 H21       -32.0215   26.7997   62.3670 H         1 <0>         0.0600 
     49 H22       -31.1008   26.8210   60.0661 H         1 <0>         0.0600 
     50 H23       -30.4073   28.3993   60.3120 H         1 <0>         0.0600 
     51 H24       -32.5864   24.6638   68.1335 H         1 <0>         0.0600 
     52 H25       -32.3686   26.2630   67.4537 H         1 <0>         0.0600 
     53 H26       -27.5891   25.7863   60.3889 H         1 <0>         0.0600 
     54 H27       -28.9540   25.9260   59.3196 H         1 <0>         0.0600 
     55 H28       -33.8036   25.5466   65.4493 H         1 <0>         0.0600 
     56 H29       -29.0436   24.1647   66.4469 H         1 <0>         0.0600 
     57 H30       -28.7749   27.5525   61.8960 H         1 <0>         0.0600 
     58 H31       -29.8282   23.7900   64.0696 H         1 <0>         0.0600 
     59 H32       -28.9161   26.6066   63.7726 H         1 <0>         0.3000 
     60 H33       -28.2101   27.0925   57.5250 H         1 <0>         0.3000 
     61 H34       -34.8491   25.1156   68.0719 H         1 <0>         0.4180 
     62 H35       -27.0066   28.6332   56.6010 H         1 <0>         0.3619 
@<TRIPOS>BOND
     1    1    7 1    
     2    1   28 1    
     3    1   29 1    
     4    1   30 1    
     5    2   14 1    
     6    2   31 1    
     7    2   32 1    
     8    2   33 1    
     9    3   14 1    
    10    3   34 1    
    11    3   35 1    
    12    3   36 1    
    13    4    5 1    
    14    4    6 1    
    15    4   37 1    
    16    4   38 1    
    17    5   13 1    
    18    5   39 1    
    19    5   40 1    
    20    6   22 1    
    21    6   41 1    
    22    6   42 1    
    23    7    8 1    
    24    7   43 1    
    25    7   44 1    
    26    8    9 1    
    27    8   45 1    
    28    8   46 1    
    29    9   10 1    
    30    9   47 1    
    31    9   48 1    
    32   10   15 1    
    33   10   49 1    
    34   10   50 1    
    35   11   13 1    
    36   11   23 1    
    37   11   51 1    
    38   11   52 1    
    39   12   15 1    
    40   12   17 1    
    41   12   53 1    
    42   12   54 1    
    43   13   22 1    
    44   13   55 1    
    45   14   16 1    
    46   14   56 1    
    47   15   18 1    
    48   15   57 1    
    49   16   19 1    
    50   16   20 1    
    51   16   58 1    
    52   17   21 am   BACKBONE|DICT|INTERRES
    53   17   25 2    
    54   18   20 am   BACKBONE|DICT|INTERRES
    55   18   26 2    
    56   19   22 am   BACKBONE|DICT|INTERRES
    57   19   27 2    
    58   20   59 1    
    59   21   24 1    
    60   21   60 1    
    61   23   61 1    
    62   24   62 1    
@<TRIPOS>SUBSTRUCTURE
     1 <0>         1 GROUP             0       ****    0 ROOT    
@<TRIPOS>MOLECULE
BB2_501_1LRU
62   62    1
SMALL
USER_CHARGES


@<TRIPOS>ATOM
      1 C1        -35.0229   28.9067   60.2093 C.3       1 <0>        -0.1800 
      2 C2        -28.1287   26.0133   66.1769 C.3       1 <0>        -0.1800 
      3 C3        -27.6495   23.8343   65.0063 C.3       1 <0>        -0.1800 
      4 C4        -33.8422   23.2684   65.4049 C.3       1 <0>        -0.1200 
      5 C5        -34.2783   24.2976   66.4309 C.3       1 <0>        -0.1200 
      6 C6        -32.3684   23.5780   65.1759 C.3       1 <0>        -0.0500 
      7 C7        -33.8866   27.9553   60.5828 C.3       1 <0>        -0.1200 
      8 C8        -32.8911   28.6361   61.5262 C.3       1 <0>        -0.1200 
      9 C9        -31.6958   27.7640   61.9260 C.3       1 <0>        -0.1200 
     10 C10       -30.6657   27.5603   60.7935 C.3       1 <0>        -0.1200 
     11 C11       -33.0503   26.2316   67.5242 C.3       1 <0>         0.1450 
     12 C12       -28.4279   26.5519   60.0444 C.3       1 <0>        -0.1200 
     13 C13       -33.3653   25.5112   66.1948 C.3       1 <0>         0.0100 
     14 C14       -28.7508   24.7536   65.5615 C.3       1 <0>        -0.0600 
     15 C15       -29.3225   26.9350   61.2449 C.3       1 <0>        -0.0600 
     16 C16       -29.8581   25.0136   64.5011 C.3       1 <0>         0.1400 
     17 C17       -27.7208   27.7395   59.3879 C.2       1 <0>         0.5000 
     18 C18       -29.5588   25.7110   62.1390 C.2       1 <0>         0.5000 
     19 C19       -31.0943   25.7152   65.1346 C.2       1 <0>         0.5000 
     20 N1        -29.3428   25.8875   63.4497 N.am      1 <0>        -0.5000 
     21 N2        -27.8034   27.8237   58.0547 N.am      1 <0>        -0.2244 
     22 N3        -32.1728   24.9854   65.5077 N.am      1 <0>        -0.1400 
     23 O1        -34.2100   26.8321   68.0720 O.3       1 <0>        -0.6830 
     24 O2        -26.6191   28.2977   57.4536 O.3       1 <0>        -0.4375 
     25 O3        -27.0088   28.4896   60.0531 O.2       1 <0>        -0.5000 
     26 O4        -29.9794   24.6594   61.6531 O.2       1 <0>        -0.5000 
     27 O5        -31.0600   26.9387   65.2837 O.2       1 <0>        -0.5000 
     28 H1        -35.6824   28.4693   59.4648 H         1 <0>         0.0600 
     29 H2        -34.6229   29.8235   59.7817 H         1 <0>         0.0600 
     30 H3        -35.6243   29.1696   61.0788 H         1 <0>         0.0600 
     31 H4        -27.6100   26.6233   65.4386 H         1 <0>         0.0600 
     32 H5        -28.8883   26.6241   66.6507 H         1 <0>         0.0600 
     33 H6        -27.4098   25.7505   66.9550 H         1 <0>         0.0600 
     34 H7        -27.0947   24.3190   64.2019 H         1 <0>         0.0600 
     35 H8        -26.9361   23.5613   65.7841 H         1 <0>         0.0600 
     36 H9        -28.0664   22.9063   64.6101 H         1 <0>         0.0600 
     37 H10       -34.3994   23.4165   64.4806 H         1 <0>         0.0600 
     38 H11       -34.0127   22.2425   65.7318 H         1 <0>         0.0600 
     39 H12       -35.3358   24.5485   66.3526 H         1 <0>         0.0600 
     40 H13       -34.1170   23.8870   67.4295 H         1 <0>         0.0600 
     41 H14       -32.1039   23.3306   64.1483 H         1 <0>         0.0600 
     42 H15       -31.7234   23.0233   65.8508 H         1 <0>         0.0600 
     43 H16       -34.2911   27.0608   61.0560 H         1 <0>         0.0600 
     44 H17       -33.3789   27.6293   59.6767 H         1 <0>         0.0600 
     45 H18       -32.5197   29.5448   61.0561 H         1 <0>         0.0600 
     46 H19       -33.4136   28.9499   62.4314 H         1 <0>         0.0600 
     47 H20       -31.1951   28.2259   62.7760 H         1 <0>         0.0600 
     48 H21       -32.0696   26.8078   62.2925 H         1 <0>         0.0600 
     49 H22       -31.1132   26.9460   60.0109 H         1 <0>         0.0600 
     50 H23       -30.4555   28.5273   60.3306 H         1 <0>         0.0600 
     51 H24       -32.6305   25.5373   68.2528 H         1 <0>         0.0600 
     52 H25       -32.3181   27.0236   67.3900 H         1 <0>         0.0600 
     53 H26       -27.6496   25.8547   60.3573 H         1 <0>         0.0600 
     54 H27       -29.0180   26.0146   59.3052 H         1 <0>         0.0600 
     55 H28       -33.8527   26.2036   65.5069 H         1 <0>         0.0600 
     56 H29       -29.2193   24.2224   66.3910 H         1 <0>         0.0600 
     57 H30       -28.7971   27.6762   61.8489 H         1 <0>         0.0600 
     58 H31       -30.1259   24.0533   64.0705 H         1 <0>         0.0600 
     59 H32       -29.0245   26.7963   63.7578 H         1 <0>         0.3000 
     60 H33       -28.2081   27.0900   57.4808 H         1 <0>         0.3000 
     61 H34       -34.5902   27.3972   67.4143 H         1 <0>         0.4180 
     62 H35       -26.0761   28.5035   58.2042 H         1 <0>         0.3619 
@<TRIPOS>BOND
     1    1    7 1    
     2    1   28 1    
     3    1   29 1    
     4    1   30 1    
     5    2   14 1    
     6    2   31 1    
     7    2   32 1    
     8    2   33 1    
     9    3   14 1    
    10    3   34 1    
    11    3   35 1    
    12    3   36 1    
    13    4    5 1    
    14    4    6 1    
    15    4   37 1    
    16    4   38 1    
    17    5   13 1    
    18    5   39 1    
    19    5   40 1    
    20    6   22 1    
    21    6   41 1    
    22    6   42 1    
    23    7    8 1    
    24    7   43 1    
    25    7   44 1    
    26    8    9 1    
    27    8   45 1    
    28    8   46 1    
    29    9   10 1    
    30    9   47 1    
    31    9   48 1    
    32   10   15 1    
    33   10   49 1    
    34   10   50 1    
    35   11   13 1    
    36   11   23 1    
    37   11   51 1    
    38   11   52 1    
    39   12   15 1    
    40   12   17 1    
    41   12   53 1    
    42   12   54 1    
    43   13   22 1    
    44   13   55 1    
    45   14   16 1    
    46   14   56 1    
    47   15   18 1    
    48   15   57 1    
    49   16   19 1    
    50   16   20 1    
    51   16   58 1    
    52   17   21 am   BACKBONE|DICT|INTERRES
    53   17   25 2    
    54   18   20 am   BACKBONE|DICT|INTERRES
    55   18   26 2    
    56   19   22 am   BACKBONE|DICT|INTERRES
    57   19   27 2    
    58   20   59 1    
    59   21   24 1    
    60   21   60 1    
    61   23   61 1    
    62   24   62 1    
@<TRIPOS>SUBSTRUCTURE
     1 <0>         1 GROUP             0       ****    0 ROOT    
@<TRIPOS>MOLECULE
BB2_501_1LRU
62   62    1
SMALL
USER_CHARGES


@<TRIPOS>ATOM
      1 C1        -35.1582   28.8701   60.2370 C.3       1 <0>        -0.1800 
      2 C2        -28.1680   26.0127   66.1604 C.3       1 <0>        -0.1800 
      3 C3        -27.7175   23.8266   64.9987 C.3       1 <0>        -0.1800 
      4 C4        -33.7734   23.1288   65.6459 C.3       1 <0>        -0.1200 
      5 C5        -34.1994   24.1816   66.6516 C.3       1 <0>        -0.1200 
      6 C6        -32.3550   23.5380   65.2607 C.3       1 <0>        -0.0500 
      7 C7        -33.9675   27.9607   60.5581 C.3       1 <0>        -0.1200 
      8 C8        -32.9796   28.6463   61.5110 C.3       1 <0>        -0.1200 
      9 C9        -31.7877   27.7694   61.9093 C.3       1 <0>        -0.1200 
     10 C10       -30.7564   27.5598   60.7771 C.3       1 <0>        -0.1200 
     11 C11       -33.1698   26.3590   67.4667 C.3       1 <0>         0.1450 
     12 C12       -28.5135   26.5425   60.0471 C.3       1 <0>        -0.1200 
     13 C13       -33.4323   25.4485   66.2443 C.3       1 <0>         0.0100 
     14 C14       -28.8088   24.7551   65.5583 C.3       1 <0>        -0.0600 
     15 C15       -29.4133   26.9381   61.2411 C.3       1 <0>        -0.0600 
     16 C16       -29.9251   25.0182   64.5099 C.3       1 <0>         0.1400 
     17 C17       -27.7397   27.7064   59.4278 C.2       1 <0>         0.5000 
     18 C18       -29.6498   25.7202   62.1437 C.2       1 <0>         0.5000 
     19 C19       -31.1606   25.7069   65.1599 C.2       1 <0>         0.5000 
     20 N1        -29.4228   25.8949   63.4545 N.am      1 <0>        -0.5000 
     21 N2        -27.8036   27.8237   58.0969 N.am      1 <0>        -0.2244 
     22 N3        -32.2150   24.9596   65.5617 N.am      1 <0>        -0.1400 
     23 O1        -34.3857   26.8169   68.0266 O.3       1 <0>        -0.6830 
     24 O2        -26.6162   28.3173   57.5205 O.3       1 <0>        -0.4375 
     25 O3        -27.0095   28.4130   60.1220 O.2       1 <0>        -0.5000 
     26 O4        -30.0873   24.6745   61.6621 O.2       1 <0>        -0.5000 
     27 O5        -31.1440   26.9327   65.2877 O.2       1 <0>        -0.5000 
     28 H1        -35.8071   28.4510   59.4688 H         1 <0>         0.0600 
     29 H2        -34.8070   29.8238   59.8517 H         1 <0>         0.0600 
     30 H3        -35.7636   29.0595   61.1242 H         1 <0>         0.0600 
     31 H4        -27.6768   26.6234   65.4042 H         1 <0>         0.0600 
     32 H5        -28.9180   26.6235   66.6525 H         1 <0>         0.0600 
     33 H6        -27.4194   25.7540   66.9085 H         1 <0>         0.0600 
     34 H7        -27.1607   24.3056   64.1937 H         1 <0>         0.0600 
     35 H8        -27.0049   23.5488   65.7761 H         1 <0>         0.0600 
     36 H9        -28.1440   22.9041   64.6041 H         1 <0>         0.0600 
     37 H10       -34.4216   23.1743   64.7707 H         1 <0>         0.0600 
     38 H11       -33.8232   22.1156   66.0449 H         1 <0>         0.0600 
     39 H12       -35.2799   24.3306   66.6694 H         1 <0>         0.0600 
     40 H13       -33.8966   23.8609   67.6493 H         1 <0>         0.0600 
     41 H14       -32.1894   23.3089   64.2069 H         1 <0>         0.0600 
     42 H15       -31.6040   23.0234   65.8530 H         1 <0>         0.0600 
     43 H16       -34.3148   27.0282   61.0044 H         1 <0>         0.0600 
     44 H17       -33.4585   27.6979   59.6306 H         1 <0>         0.0600 
     45 H18       -32.6082   29.5633   61.0575 H         1 <0>         0.0600 
     46 H19       -33.5124   28.9404   62.4174 H         1 <0>         0.0600 
     47 H20       -31.2856   28.2232   62.7632 H         1 <0>         0.0600 
     48 H21       -32.1641   26.8117   62.2696 H         1 <0>         0.0600 
     49 H22       -31.2035   26.9377   59.9995 H         1 <0>         0.0600 
     50 H23       -30.5467   28.5203   60.3064 H         1 <0>         0.0600 
     51 H24       -32.6105   25.8237   68.2385 H         1 <0>         0.0600 
     52 H25       -32.6087   27.2501   67.2015 H         1 <0>         0.0600 
     53 H26       -27.7703   25.8084   60.3606 H         1 <0>         0.0600 
     54 H27       -29.1154   26.0474   59.2846 H         1 <0>         0.0600 
     55 H28       -34.0126   25.9955   65.5007 H         1 <0>         0.0600 
     56 H29       -29.2707   24.2246   66.3928 H         1 <0>         0.0600 
     57 H30       -28.8932   27.6867   61.8456 H         1 <0>         0.0600 
     58 H31       -30.1931   24.0606   64.0719 H         1 <0>         0.0600 
     59 H32       -29.0931   26.8012   63.7552 H         1 <0>         0.3000 
     60 H33       -28.2086   27.1150   57.4941 H         1 <0>         0.3000 
     61 H34       -34.8841   27.2413   67.3418 H         1 <0>         0.4180 
     62 H35       -26.0851   28.5117   58.2819 H         1 <0>         0.3619 
@<TRIPOS>BOND
     1    1    7 1    
     2    1   28 1    
     3    1   29 1    
     4    1   30 1    
     5    2   14 1    
     6    2   31 1    
     7    2   32 1    
     8    2   33 1    
     9    3   14 1    
    10    3   34 1    
    11    3   35 1    
    12    3   36 1    
    13    4    5 1    
    14    4    6 1    
    15    4   37 1    
    16    4   38 1    
    17    5   13 1    
    18    5   39 1    
    19    5   40 1    
    20    6   22 1    
    21    6   41 1    
    22    6   42 1    
    23    7    8 1    
    24    7   43 1    
    25    7   44 1    
    26    8    9 1    
    27    8   45 1    
    28    8   46 1    
    29    9   10 1    
    30    9   47 1    
    31    9   48 1    
    32   10   15 1    
    33   10   49 1    
    34   10   50 1    
    35   11   13 1    
    36   11   23 1    
    37   11   51 1    
    38   11   52 1    
    39   12   15 1    
    40   12   17 1    
    41   12   53 1    
    42   12   54 1    
    43   13   22 1    
    44   13   55 1    
    45   14   16 1    
    46   14   56 1    
    47   15   18 1    
    48   15   57 1    
    49   16   19 1    
    50   16   20 1    
    51   16   58 1    
    52   17   21 am   BACKBONE|DICT|INTERRES
    53   17   25 2    
    54   18   20 am   BACKBONE|DICT|INTERRES
    55   18   26 2    
    56   19   22 am   BACKBONE|DICT|INTERRES
    57   19   27 2    
    58   20   59 1    
    59   21   24 1    
    60   21   60 1    
    61   23   61 1    
    62   24   62 1    
@<TRIPOS>SUBSTRUCTURE
     1 <0>         1 GROUP             0       ****    0 ROOT    
@<TRIPOS>MOLECULE
BB2_501_1LRU
62   62    1
SMALL
USER_CHARGES


@<TRIPOS>ATOM
      1 C1        -34.8920   24.9075   62.3663 C.3       1 <0>        -0.1800 
      2 C2        -28.2109   26.1683   65.7584 C.3       1 <0>        -0.1800 
      3 C3        -27.5293   24.0228   64.6296 C.3       1 <0>        -0.1800 
      4 C4        -33.6194   22.4165   64.9912 C.3       1 <0>        -0.1200 
      5 C5        -34.0917   23.1943   66.2085 C.3       1 <0>        -0.1200 
      6 C6        -32.2360   22.9826   64.6778 C.3       1 <0>        -0.0500 
      7 C7        -33.5792   25.5837   61.9581 C.3       1 <0>        -0.1200 
      8 C8        -33.6638   27.1213   61.9131 C.3       1 <0>        -0.1200 
      9 C9        -32.2953   27.8386   61.8888 C.3       1 <0>        -0.1200 
     10 C10       -31.3760   27.4788   60.6924 C.3       1 <0>        -0.1200 
     11 C11       -33.1487   25.1974   67.4936 C.3       1 <0>         0.1450 
     12 C12       -29.1415   26.6114   59.7765 C.3       1 <0>        -0.1200 
     13 C13       -33.3899   24.5559   66.1018 C.3       1 <0>         0.0100 
     14 C14       -28.7025   24.7952   65.2566 C.3       1 <0>        -0.0600 
     15 C15       -29.9629   26.9397   61.0605 C.3       1 <0>        -0.0600 
     16 C16       -29.9256   24.8351   64.2928 C.3       1 <0>         0.1400 
     17 C17       -27.9462   27.5202   59.4636 C.2       1 <0>         0.5000 
     18 C18       -30.0629   25.6919   61.9559 C.2       1 <0>         0.5000 
     19 C19       -31.2090   25.2259   65.0731 C.2       1 <0>         0.5000 
     20 N1        -29.7019   25.8317   63.2413 N.am      1 <0>        -0.5000 
     21 N2        -27.4489   27.4234   58.2242 N.am      1 <0>        -0.2244 
     22 N3        -32.1623   24.2952   65.3263 N.am      1 <0>        -0.1400 
     23 O1        -33.4098   26.5856   67.4518 O.3       1 <0>        -0.6830 
     24 O2        -26.1054   27.8248   58.0832 O.3       1 <0>        -0.4375 
     25 O3        -27.4208   28.2237   60.3227 O.2       1 <0>        -0.5000 
     26 O4        -30.4857   24.6319   61.4899 O.2       1 <0>        -0.5000 
     27 O5        -31.3380   26.3935   65.4490 O.2       1 <0>        -0.5000 
     28 H1        -34.8625   23.8375   62.1590 H         1 <0>         0.0600 
     29 H2        -35.7534   25.3281   61.8529 H         1 <0>         0.0600 
     30 H3        -35.0634   25.0228   63.4349 H         1 <0>         0.0600 
     31 H4        -27.8243   26.7813   64.9452 H         1 <0>         0.0600 
     32 H5        -28.9997   26.7313   66.2528 H         1 <0>         0.0600 
     33 H6        -27.4076   26.0507   66.4864 H         1 <0>         0.0600 
     34 H7        -27.1649   24.5126   63.7273 H         1 <0>         0.0600 
     35 H8        -26.6942   23.9439   65.3265 H         1 <0>         0.0600 
     36 H9        -27.8223   23.0056   64.3652 H         1 <0>         0.0600 
     37 H10       -34.2937   22.6063   64.1560 H         1 <0>         0.0600 
     38 H11       -33.6060   21.3383   65.1554 H         1 <0>         0.0600 
     39 H12       -35.1760   23.2914   66.2418 H         1 <0>         0.0600 
     40 H13       -33.7891   22.6709   67.1150 H         1 <0>         0.0600 
     41 H14       -32.1121   23.0597   63.5960 H         1 <0>         0.0600 
     42 H15       -31.4468   22.3299   65.0527 H         1 <0>         0.0600 
     43 H16       -32.8144   25.2785   62.6654 H         1 <0>         0.0600 
     44 H17       -33.2698   25.2047   60.9835 H         1 <0>         0.0600 
     45 H18       -34.2615   27.4272   61.0525 H         1 <0>         0.0600 
     46 H19       -34.2070   27.4690   62.7938 H         1 <0>         0.0600 
     47 H20       -32.4885   28.9108   61.8580 H         1 <0>         0.0600 
     48 H21       -31.7866   27.6762   62.8388 H         1 <0>         0.0600 
     49 H22       -31.8779   26.7671   60.0369 H         1 <0>         0.0600 
     50 H23       -31.2485   28.3749   60.0838 H         1 <0>         0.0600 
     51 H24       -33.8232   24.7700   68.2367 H         1 <0>         0.0600 
     52 H25       -32.1360   25.0203   67.8551 H         1 <0>         0.0600 
     53 H26       -28.7425   25.5964   59.8076 H         1 <0>         0.0600 
     54 H27       -29.8058   26.6230   58.9123 H         1 <0>         0.0600 
     55 H28       -34.0255   25.2090   65.5026 H         1 <0>         0.0600 
     56 H29       -29.0008   24.2247   66.1361 H         1 <0>         0.0600 
     57 H30       -29.4637   27.7179   61.6412 H         1 <0>         0.0600 
     58 H31       -30.0232   23.8473   63.8446 H         1 <0>         0.0600 
     59 H32       -29.3937   26.7423   63.5515 H         1 <0>         0.3000 
     60 H33       -27.7172   26.7455   57.5195 H         1 <0>         0.3000 
     61 H34       -32.8028   26.9701   66.8299 H         1 <0>         0.4180 
     62 H35       -25.9304   28.2194   58.9280 H         1 <0>         0.3619 
@<TRIPOS>BOND
     1    1    7 1    
     2    1   28 1    
     3    1   29 1    
     4    1   30 1    
     5    2   14 1    
     6    2   31 1    
     7    2   32 1    
     8    2   33 1    
     9    3   14 1    
    10    3   34 1    
    11    3   35 1    
    12    3   36 1    
    13    4    5 1    
    14    4    6 1    
    15    4   37 1    
    16    4   38 1    
    17    5   13 1    
    18    5   39 1    
    19    5   40 1    
    20    6   22 1    
    21    6   41 1    
    22    6   42 1    
    23    7    8 1    
    24    7   43 1    
    25    7   44 1    
    26    8    9 1    
    27    8   45 1    
    28    8   46 1    
    29    9   10 1    
    30    9   47 1    
    31    9   48 1    
    32   10   15 1    
    33   10   49 1    
    34   10   50 1    
    35   11   13 1    
    36   11   23 1    
    37   11   51 1    
    38   11   52 1    
    39   12   15 1    
    40   12   17 1    
    41   12   53 1    
    42   12   54 1    
    43   13   22 1    
    44   13   55 1    
    45   14   16 1    
    46   14   56 1    
    47   15   18 1    
    48   15   57 1    
    49   16   19 1    
    50   16   20 1    
    51   16   58 1    
    52   17   21 am   BACKBONE|DICT|INTERRES
    53   17   25 2    
    54   18   20 am   BACKBONE|DICT|INTERRES
    55   18   26 2    
    56   19   22 am   BACKBONE|DICT|INTERRES
    57   19   27 2    
    58   20   59 1    
    59   21   24 1    
    60   21   60 1    
    61   23   61 1    
    62   24   62 1    
@<TRIPOS>SUBSTRUCTURE
     1 <0>         1 GROUP             0       ****    0 ROOT    
@<TRIPOS>MOLECULE
BB2_501_1LRU
62   62    1
SMALL
USER_CHARGES


@<TRIPOS>ATOM
      1 C1        -35.0179   28.8980   60.2215 C.3       1 <0>        -0.1800 
      2 C2        -28.1070   26.0320   66.1127 C.3       1 <0>        -0.1800 
      3 C3        -27.4281   23.8280   65.0864 C.3       1 <0>        -0.1800 
      4 C4        -33.6625   22.7258   64.8105 C.3       1 <0>        -0.1200 
      5 C5        -34.1174   23.4934   66.0412 C.3       1 <0>        -0.1200 
      6 C6        -32.2071   23.1491   64.6212 C.3       1 <0>        -0.0500 
      7 C7        -33.8927   27.9348   60.6077 C.3       1 <0>        -0.1200 
      8 C8        -32.9233   28.5987   61.5912 C.3       1 <0>        -0.1200 
      9 C9        -31.7061   27.7408   61.9674 C.3       1 <0>        -0.1200 
     10 C10       -30.6957   27.5153   60.8182 C.3       1 <0>        -0.1200 
     11 C11       -33.0699   25.3686   67.4330 C.3       1 <0>         0.1450 
     12 C12       -28.4569   26.4995   60.0433 C.3       1 <0>        -0.1200 
     13 C13       -33.3003   24.7926   66.0118 C.3       1 <0>         0.0100 
     14 C14       -28.6150   24.6892   65.5585 C.3       1 <0>        -0.0600 
     15 C15       -29.3531   26.8669   61.2543 C.3       1 <0>        -0.0600 
     16 C16       -29.7105   24.7833   64.4549 C.3       1 <0>         0.1400 
     17 C17       -27.7097   27.6851   59.4225 C.2       1 <0>         0.5000 
     18 C18       -29.5944   25.6237   62.1214 C.2       1 <0>         0.5000 
     19 C19       -31.0340   25.3030   65.0745 C.2       1 <0>         0.5000 
     20 N1        -29.2859   25.7274   63.4219 N.am      1 <0>        -0.5000 
     21 N2        -27.8093   27.8238   58.0919 N.am      1 <0>        -0.2244 
     22 N3        -32.0617   24.4457   65.2878 N.am      1 <0>        -0.1400 
     23 O1        -34.2922   25.7782   68.0079 O.3       1 <0>        -0.6830 
     24 O2        -26.6600   28.3407   57.4540 O.3       1 <0>        -0.4375 
     25 O3        -27.0096   28.4060   60.1301 O.2       1 <0>        -0.5000 
     26 O4        -30.0969   24.6145   61.6237 O.2       1 <0>        -0.5000 
     27 O5        -31.1173   26.4979   65.3640 O.2       1 <0>        -0.5000 
     28 H1        -35.6608   28.4741   59.4545 H         1 <0>         0.0600 
     29 H2        -34.6102   29.8214   59.8183 H         1 <0>         0.0600 
     30 H3        -35.6402   29.1479   61.0808 H         1 <0>         0.0600 
     31 H4        -27.5979   26.6228   65.3573 H         1 <0>         0.0600 
     32 H5        -28.9183   26.6235   66.5203 H         1 <0>         0.0600 
     33 H6        -27.4090   25.8670   66.9326 H         1 <0>         0.0600 
     34 H7        -26.8982   24.2947   64.2557 H         1 <0>         0.0600 
     35 H8        -26.7136   23.6685   65.8919 H         1 <0>         0.0600 
     36 H9        -27.7650   22.8457   64.7546 H         1 <0>         0.0600 
     37 H10       -34.2510   23.0409   63.9472 H         1 <0>         0.0600 
     38 H11       -33.7845   21.6459   64.9166 H         1 <0>         0.0600 
     39 H12       -35.1933   23.6709   66.0485 H         1 <0>         0.0600 
     40 H13       -33.8700   22.9139   66.9327 H         1 <0>         0.0600 
     41 H14       -31.9805   23.2175   63.5542 H         1 <0>         0.0600 
     42 H15       -31.5230   22.4180   65.0530 H         1 <0>         0.0600 
     43 H16       -34.3087   27.0311   61.0543 H         1 <0>         0.0600 
     44 H17       -33.3650   27.6293   59.7035 H         1 <0>         0.0600 
     45 H18       -32.5978   29.5446   61.1744 H         1 <0>         0.0600 
     46 H19       -33.4680   28.8456   62.5040 H         1 <0>         0.0600 
     47 H20       -31.1895   28.2208   62.7982 H         1 <0>         0.0600 
     48 H21       -32.0657   26.7848   62.3513 H         1 <0>         0.0600 
     49 H22       -31.1581   26.8993   60.0456 H         1 <0>         0.0600 
     50 H23       -30.4782   28.4746   60.3460 H         1 <0>         0.0600 
     51 H24       -32.6087   24.6236   68.0816 H         1 <0>         0.0600 
     52 H25       -32.4094   26.2332   67.4359 H         1 <0>         0.0600 
     53 H26       -27.6929   25.7824   60.3488 H         1 <0>         0.0600 
     54 H27       -29.0557   25.9872   59.2891 H         1 <0>         0.0600 
     55 H28       -33.8250   25.5334   65.4029 H         1 <0>         0.0600 
     56 H29       -29.0559   24.1796   66.4131 H         1 <0>         0.0600 
     57 H30       -28.8235   27.5932   61.8762 H         1 <0>         0.0600 
     58 H31       -29.8374   23.7940   64.0231 H         1 <0>         0.0600 
     59 H32       -28.9032   26.6026   63.7497 H         1 <0>         0.3000 
     60 H33       -28.2310   27.1094   57.5071 H         1 <0>         0.3000 
     61 H34       -34.8789   25.0371   68.0115 H         1 <0>         0.4180 
     62 H35       -26.9723   28.6110   56.5993 H         1 <0>         0.3619 
@<TRIPOS>BOND
     1    1    7 1    
     2    1   28 1    
     3    1   29 1    
     4    1   30 1    
     5    2   14 1    
     6    2   31 1    
     7    2   32 1    
     8    2   33 1    
     9    3   14 1    
    10    3   34 1    
    11    3   35 1    
    12    3   36 1    
    13    4    5 1    
    14    4    6 1    
    15    4   37 1    
    16    4   38 1    
    17    5   13 1    
    18    5   39 1    
    19    5   40 1    
    20    6   22 1    
    21    6   41 1    
    22    6   42 1    
    23    7    8 1    
    24    7   43 1    
    25    7   44 1    
    26    8    9 1    
    27    8   45 1    
    28    8   46 1    
    29    9   10 1    
    30    9   47 1    
    31    9   48 1    
    32   10   15 1    
    33   10   49 1    
    34   10   50 1    
    35   11   13 1    
    36   11   23 1    
    37   11   51 1    
    38   11   52 1    
    39   12   15 1    
    40   12   17 1    
    41   12   53 1    
    42   12   54 1    
    43   13   22 1    
    44   13   55 1    
    45   14   16 1    
    46   14   56 1    
    47   15   18 1    
    48   15   57 1    
    49   16   19 1    
    50   16   20 1    
    51   16   58 1    
    52   17   21 am   BACKBONE|DICT|INTERRES
    53   17   25 2    
    54   18   20 am   BACKBONE|DICT|INTERRES
    55   18   26 2    
    56   19   22 am   BACKBONE|DICT|INTERRES
    57   19   27 2    
    58   20   59 1    
    59   21   24 1    
    60   21   60 1    
    61   23   61 1    
    62   24   62 1    
@<TRIPOS>SUBSTRUCTURE
     1 <0>         1 GROUP             0       ****    0 ROOT    
@<TRIPOS>MOLECULE
BB2_501_1LRU
62   62    1
SMALL
USER_CHARGES


@<TRIPOS>ATOM
      1 C1        -33.9489   28.0129   63.0813 C.3       1 <0>        -0.1800 
      2 C2        -28.2088   26.0053   65.9146 C.3       1 <0>        -0.1800 
      3 C3        -27.9121   23.8528   64.6290 C.3       1 <0>        -0.1800 
      4 C4        -34.0948   23.2940   65.2996 C.3       1 <0>        -0.1200 
      5 C5        -34.4248   24.1891   66.4788 C.3       1 <0>        -0.1200 
      6 C6        -32.6443   23.6369   64.9722 C.3       1 <0>        -0.0500 
      7 C7        -34.1216   27.2220   61.7791 C.3       1 <0>        -0.1200 
      8 C8        -32.8033   26.6563   61.2297 C.3       1 <0>        -0.1200 
      9 C9        -31.7836   27.7427   60.8344 C.3       1 <0>        -0.1200 
     10 C10       -30.5117   27.2131   60.1395 C.3       1 <0>        -0.1200 
     11 C11       -33.2219   26.1352   67.6025 C.3       1 <0>         0.1450 
     12 C12       -28.0558   26.4725   60.2835 C.3       1 <0>        -0.1200 
     13 C13       -33.5676   25.4457   66.2639 C.3       1 <0>         0.0100 
     14 C14       -28.9258   24.7776   65.3282 C.3       1 <0>        -0.0600 
     15 C15       -29.3202   26.8700   61.0748 C.3       1 <0>        -0.0600 
     16 C16       -30.1301   25.1177   64.4073 C.3       1 <0>         0.1400 
     17 C17       -27.4628   27.6137   59.4626 C.2       1 <0>         0.5000 
     18 C18       -29.6586   25.7259   62.0367 C.2       1 <0>         0.5000 
     19 C19       -31.3235   25.7461   65.1641 C.2       1 <0>         0.5000 
     20 N1        -29.7273   26.0331   63.3385 N.am      1 <0>        -0.5000 
     21 N2        -27.4094   27.4235   58.1426 N.am      1 <0>        -0.2244 
     22 N3        -32.3992   24.9859   65.4897 N.am      1 <0>        -0.1400 
     23 O1        -34.4014   26.5645   68.2530 O.3       1 <0>        -0.6830 
     24 O2        -26.4882   28.2240   57.4530 O.3       1 <0>        -0.4375 
     25 O3        -27.0087   28.6136   60.0147 O.2       1 <0>        -0.5000 
     26 O4        -29.8671   24.5959   61.5939 O.2       1 <0>        -0.5000 
     27 O5        -31.2571   26.9417   65.4505 O.2       1 <0>        -0.5000 
     28 H1        -34.9166   28.2269   63.5335 H         1 <0>         0.0600 
     29 H2        -33.4413   28.9633   62.9148 H         1 <0>         0.0600 
     30 H3        -33.3699   27.4477   63.8086 H         1 <0>         0.0600 
     31 H4        -27.7685   26.6239   65.1341 H         1 <0>         0.0600 
     32 H5        -28.8906   26.6235   66.4917 H         1 <0>         0.0600 
     33 H6        -27.4103   25.7026   66.5904 H         1 <0>         0.0600 
     34 H7        -27.4350   24.3501   63.7844 H         1 <0>         0.0600 
     35 H8        -27.1267   23.5400   65.3163 H         1 <0>         0.0600 
     36 H9        -28.3948   22.9501   64.2526 H         1 <0>         0.0600 
     37 H10       -34.7315   23.5545   64.4520 H         1 <0>         0.0600 
     38 H11       -34.2425   22.2337   65.5136 H         1 <0>         0.0600 
     39 H12       -35.4905   24.4095   66.5488 H         1 <0>         0.0600 
     40 H13       -34.1282   23.6821   67.3998 H         1 <0>         0.0600 
     41 H14       -32.5021   23.5743   63.8916 H         1 <0>         0.0600 
     42 H15       -31.9526   22.9450   65.4525 H         1 <0>         0.0600 
     43 H16       -34.8025   26.3902   61.9654 H         1 <0>         0.0600 
     44 H17       -34.6050   27.8471   61.0277 H         1 <0>         0.0600 
     45 H18       -32.3836   25.9812   61.9735 H         1 <0>         0.0600 
     46 H19       -33.0231   26.0399   60.3572 H         1 <0>         0.0600 
     47 H20       -32.2817   28.4327   60.1520 H         1 <0>         0.0600 
     48 H21       -31.5029   28.3374   61.7037 H         1 <0>         0.0600 
     49 H22       -30.7569   26.3624   59.5016 H         1 <0>         0.0600 
     50 H23       -30.1890   27.9980   59.4554 H         1 <0>         0.0600 
     51 H24       -32.6664   25.4577   68.2535 H         1 <0>         0.0600 
     52 H25       -32.6090   27.0226   67.4574 H         1 <0>         0.0600 
     53 H26       -27.2753   26.1339   60.9676 H         1 <0>         0.0600 
     54 H27       -28.2724   25.6235   59.6325 H         1 <0>         0.0600 
     55 H28       -34.1189   26.1437   65.6305 H         1 <0>         0.0600 
     56 H29       -29.3233   24.2235   66.1788 H         1 <0>         0.0600 
     57 H30       -29.0875   27.7562   61.6697 H         1 <0>         0.0600 
     58 H31       -30.4358   24.1776   63.9563 H         1 <0>         0.0600 
     59 H32       -29.5812   26.9948   63.6150 H         1 <0>         0.3000 
     60 H33       -27.6994   26.6142   57.6014 H         1 <0>         0.3000 
     61 H34       -34.9829   25.8224   68.3306 H         1 <0>         0.4180 
     62 H35       -26.1804   28.8124   58.1292 H         1 <0>         0.3619 
@<TRIPOS>BOND
     1    1    7 1    
     2    1   28 1    
     3    1   29 1    
     4    1   30 1    
     5    2   14 1    
     6    2   31 1    
     7    2   32 1    
     8    2   33 1    
     9    3   14 1    
    10    3   34 1    
    11    3   35 1    
    12    3   36 1    
    13    4    5 1    
    14    4    6 1    
    15    4   37 1    
    16    4   38 1    
    17    5   13 1    
    18    5   39 1    
    19    5   40 1    
    20    6   22 1    
    21    6   41 1    
    22    6   42 1    
    23    7    8 1    
    24    7   43 1    
    25    7   44 1    
    26    8    9 1    
    27    8   45 1    
    28    8   46 1    
    29    9   10 1    
    30    9   47 1    
    31    9   48 1    
    32   10   15 1    
    33   10   49 1    
    34   10   50 1    
    35   11   13 1    
    36   11   23 1    
    37   11   51 1    
    38   11   52 1    
    39   12   15 1    
    40   12   17 1    
    41   12   53 1    
    42   12   54 1    
    43   13   22 1    
    44   13   55 1    
    45   14   16 1    
    46   14   56 1    
    47   15   18 1    
    48   15   57 1    
    49   16   19 1    
    50   16   20 1    
    51   16   58 1    
    52   17   21 am   BACKBONE|DICT|INTERRES
    53   17   25 2    
    54   18   20 am   BACKBONE|DICT|INTERRES
    55   18   26 2    
    56   19   22 am   BACKBONE|DICT|INTERRES
    57   19   27 2    
    58   20   59 1    
    59   21   24 1    
    60   21   60 1    
    61   23   61 1    
    62   24   62 1    
@<TRIPOS>SUBSTRUCTURE
     1 <0>         1 GROUP             0       ****    0 ROOT    
@<TRIPOS>MOLECULE
BB2_501_1LRU
62   62    1
SMALL
USER_CHARGES


@<TRIPOS>ATOM
      1 C1        -34.9848   28.9373   60.1352 C.3       1 <0>        -0.1800 
      2 C2        -28.3942   25.9473   66.2523 C.3       1 <0>        -0.1800 
      3 C3        -27.1013   24.2045   64.9478 C.3       1 <0>        -0.1800 
      4 C4        -33.0616   21.9053   63.7582 C.3       1 <0>        -0.1200 
      5 C5        -33.8307   22.3372   65.0027 C.3       1 <0>        -0.1200 
      6 C6        -31.7009   22.5919   63.8992 C.3       1 <0>        -0.0500 
      7 C7        -33.8371   28.0160   60.5628 C.3       1 <0>        -0.1200 
      8 C8        -32.8578   28.7025   61.5256 C.3       1 <0>        -0.1200 
      9 C9        -31.7026   27.7822   61.9444 C.3       1 <0>        -0.1200 
     10 C10       -30.6968   27.5421   60.8025 C.3       1 <0>        -0.1200 
     11 C11       -33.2591   23.9992   66.8212 C.3       1 <0>         0.1450 
     12 C12       -28.5453   26.4342   60.0054 C.3       1 <0>        -0.1200 
     13 C13       -33.2827   23.7310   65.3191 C.3       1 <0>         0.0100 
     14 C14       -28.4831   24.6121   65.4872 C.3       1 <0>        -0.0600 
     15 C15       -29.4013   26.8191   61.2379 C.3       1 <0>        -0.0600 
     16 C16       -29.5853   24.5976   64.3882 C.3       1 <0>         0.1400 
     17 C17       -27.7155   27.5983   59.4479 C.2       1 <0>         0.5000 
     18 C18       -29.7152   25.5720   62.0817 C.2       1 <0>         0.5000 
     19 C19       -31.0176   24.7636   64.9391 C.2       1 <0>         0.5000 
     20 N1        -29.3239   25.6094   63.3629 N.am      1 <0>        -0.5000 
     21 N2        -27.8079   27.8239   58.1302 N.am      1 <0>        -0.2244 
     22 N3        -31.9438   23.7607   64.7372 N.am      1 <0>        -0.1400 
     23 O1        -34.5602   24.0464   67.3726 O.3       1 <0>        -0.6830 
     24 O2        -26.7096   28.5039   57.5625 O.3       1 <0>        -0.4375 
     25 O3        -26.9709   28.2400   60.1904 O.2       1 <0>        -0.5000 
     26 O4        -30.2798   24.6042   61.5725 O.2       1 <0>        -0.5000 
     27 O5        -31.2966   25.7890   65.5651 O.2       1 <0>        -0.5000 
     28 H1        -35.6622   28.4231   59.4530 H         1 <0>         0.0600 
     29 H2        -34.6088   29.8242   59.6243 H         1 <0>         0.0600 
     30 H3        -35.5672   29.2671   60.9960 H         1 <0>         0.0600 
     31 H4        -28.0924   26.7669   65.5998 H         1 <0>         0.0600 
     32 H5        -29.3493   26.2158   66.7039 H         1 <0>         0.0600 
     33 H6        -27.6624   25.8861   67.0580 H         1 <0>         0.0600 
     34 H7        -26.7062   24.9427   64.2509 H         1 <0>         0.0600 
     35 H8        -26.3793   24.1030   65.7583 H         1 <0>         0.0600 
     36 H9        -27.1470   23.2471   64.4281 H         1 <0>         0.0600 
     37 H10       -33.5689   22.2771   62.8680 H         1 <0>         0.0600 
     38 H11       -32.9810   20.8224   63.6644 H         1 <0>         0.0600 
     39 H12       -34.9109   22.3310   64.8569 H         1 <0>         0.0600 
     40 H13       -33.6044   21.6594   65.8257 H         1 <0>         0.0600 
     41 H14       -31.2853   22.8626   62.9285 H         1 <0>         0.0600 
     42 H15       -30.9880   21.9369   64.4001 H         1 <0>         0.0600 
     43 H16       -34.2500   27.1237   61.0347 H         1 <0>         0.0600 
     44 H17       -33.3010   27.6757   59.6760 H         1 <0>         0.0600 
     45 H18       -32.4537   29.5990   61.0534 H         1 <0>         0.0600 
     46 H19       -33.3965   29.0370   62.4131 H         1 <0>         0.0600 
     47 H20       -31.1835   28.2192   62.7984 H         1 <0>         0.0600 
     48 H21       -32.1143   26.8323   62.2872 H         1 <0>         0.0600 
     49 H22       -31.1822   26.9833   60.0007 H         1 <0>         0.0600 
     50 H23       -30.4309   28.5080   60.3713 H         1 <0>         0.0600 
     51 H24       -32.6748   23.2480   67.3525 H         1 <0>         0.0600 
     52 H25       -32.7747   24.9569   67.0137 H         1 <0>         0.0600 
     53 H26       -27.8963   25.5893   60.2430 H         1 <0>         0.0600 
     54 H27       -29.1965   26.0948   59.1995 H         1 <0>         0.0600 
     55 H28       -33.8916   24.5030   64.8487 H         1 <0>         0.0600 
     56 H29       -28.7507   23.8540   66.2241 H         1 <0>         0.0600 
     57 H30       -28.8306   27.5208   61.8495 H         1 <0>         0.0600 
     58 H31       -29.5501   23.6281   63.8912 H         1 <0>         0.0600 
     59 H32       -28.7940   26.4130   63.6693 H         1 <0>         0.3000 
     60 H33       -28.2616   27.2342   57.4469 H         1 <0>         0.3000 
     61 H34       -34.4882   24.2114   68.3005 H         1 <0>         0.4180 
     62 H35       -27.0331   28.7495   56.7069 H         1 <0>         0.3619 
@<TRIPOS>BOND
     1    1    7 1    
     2    1   28 1    
     3    1   29 1    
     4    1   30 1    
     5    2   14 1    
     6    2   31 1    
     7    2   32 1    
     8    2   33 1    
     9    3   14 1    
    10    3   34 1    
    11    3   35 1    
    12    3   36 1    
    13    4    5 1    
    14    4    6 1    
    15    4   37 1    
    16    4   38 1    
    17    5   13 1    
    18    5   39 1    
    19    5   40 1    
    20    6   22 1    
    21    6   41 1    
    22    6   42 1    
    23    7    8 1    
    24    7   43 1    
    25    7   44 1    
    26    8    9 1    
    27    8   45 1    
    28    8   46 1    
    29    9   10 1    
    30    9   47 1    
    31    9   48 1    
    32   10   15 1    
    33   10   49 1    
    34   10   50 1    
    35   11   13 1    
    36   11   23 1    
    37   11   51 1    
    38   11   52 1    
    39   12   15 1    
    40   12   17 1    
    41   12   53 1    
    42   12   54 1    
    43   13   22 1    
    44   13   55 1    
    45   14   16 1    
    46   14   56 1    
    47   15   18 1    
    48   15   57 1    
    49   16   19 1    
    50   16   20 1    
    51   16   58 1    
    52   17   21 am   BACKBONE|DICT|INTERRES
    53   17   25 2    
    54   18   20 am   BACKBONE|DICT|INTERRES
    55   18   26 2    
    56   19   22 am   BACKBONE|DICT|INTERRES
    57   19   27 2    
    58   20   59 1    
    59   21   24 1    
    60   21   60 1    
    61   23   61 1    
    62   24   62 1    
@<TRIPOS>SUBSTRUCTURE
     1 <0>         1 GROUP             0       ****    0 ROOT    
@<TRIPOS>MOLECULE
BB2_501_1LRU
62   62    1
SMALL
USER_CHARGES


@<TRIPOS>ATOM
      1 C1        -35.0623   28.9890   60.3921 C.3       1 <0>        -0.1800 
      2 C2        -28.1655   26.0224   66.1442 C.3       1 <0>        -0.1800 
      3 C3        -27.6713   23.8215   65.0181 C.3       1 <0>        -0.1800 
      4 C4        -33.8713   22.9435   65.2499 C.3       1 <0>        -0.1200 
      5 C5        -34.2758   23.8117   66.4272 C.3       1 <0>        -0.1200 
      6 C6        -32.4240   23.3415   64.9703 C.3       1 <0>        -0.0500 
      7 C7        -33.9536   28.4379   61.2918 C.3       1 <0>        -0.1200 
      8 C8        -32.7692   27.9269   60.4637 C.3       1 <0>        -0.1200 
      9 C9        -31.5964   27.4420   61.3190 C.3       1 <0>        -0.1200 
     10 C10       -30.3873   27.0520   60.4501 C.3       1 <0>        -0.1200 
     11 C11       -33.1519   25.7660   67.6312 C.3       1 <0>         0.1450 
     12 C12       -27.9122   26.3910   60.3102 C.3       1 <0>        -0.1200 
     13 C13       -33.4505   25.0944   66.2672 C.3       1 <0>         0.0100 
     14 C14       -28.7795   24.7314   65.5793 C.3       1 <0>        -0.0600 
     15 C15       -29.1012   26.7195   61.2424 C.3       1 <0>        -0.0600 
     16 C16       -29.9313   24.9442   64.5536 C.3       1 <0>         0.1400 
     17 C17       -27.4242   27.5857   59.4868 C.2       1 <0>         0.5000 
     18 C18       -29.3469   25.5483   62.2054 C.2       1 <0>         0.5000 
     19 C19       -31.2121   25.5151   65.2116 C.2       1 <0>         0.5000 
     20 N1        -29.5075   25.8608   63.4956 N.am      1 <0>        -0.5000 
     21 N2        -27.4112   27.4222   58.1587 N.am      1 <0>        -0.2244 
     22 N3        -32.2452   24.6915   65.5178 N.am      1 <0>        -0.1400 
     23 O1        -34.3512   26.1760   68.2567 O.3       1 <0>        -0.6830 
     24 O2        -26.4995   28.2247   57.4547 O.3       1 <0>        -0.4375 
     25 O3        -27.0085   28.6045   60.0365 O.2       1 <0>        -0.5000 
     26 O4        -29.4235   24.4004   61.7702 O.2       1 <0>        -0.5000 
     27 O5        -31.2507   26.7228   65.4480 O.2       1 <0>        -0.5000 
     28 H1        -35.9156   29.3325   60.9775 H         1 <0>         0.0600 
     29 H2        -35.4061   28.2229   59.7028 H         1 <0>         0.0600 
     30 H3        -34.6985   29.8230   59.7964 H         1 <0>         0.0600 
     31 H4        -27.6920   26.6219   65.3686 H         1 <0>         0.0600 
     32 H5        -28.9307   26.6203   66.6222 H         1 <0>         0.0600 
     33 H6        -27.4117   25.8023   66.8965 H         1 <0>         0.0600 
     34 H7        -27.1395   24.2994   64.1948 H         1 <0>         0.0600 
     35 H8        -26.9397   23.5779   65.7912 H         1 <0>         0.0600 
     36 H9        -28.0759   22.8785   64.6483 H         1 <0>         0.0600 
     37 H10       -34.4927   23.1848   64.3868 H         1 <0>         0.0600 
     38 H11       -33.9856   21.8784   65.4498 H         1 <0>         0.0600 
     39 H12       -35.3481   24.0064   66.4544 H         1 <0>         0.0600 
     40 H13       -34.0073   23.3028   67.3530 H         1 <0>         0.0600 
     41 H14       -32.2354   23.3080   63.8964 H         1 <0>         0.0600 
     42 H15       -31.7255   22.6589   65.4526 H         1 <0>         0.0600 
     43 H16       -33.6217   29.2190   61.9772 H         1 <0>         0.0600 
     44 H17       -34.3515   27.6306   61.9099 H         1 <0>         0.0600 
     45 H18       -33.1016   27.1215   59.8065 H         1 <0>         0.0600 
     46 H19       -32.4212   28.7288   59.8146 H         1 <0>         0.0600 
     47 H20       -31.3027   28.2272   62.0158 H         1 <0>         0.0600 
     48 H21       -31.9248   26.5997   61.9299 H         1 <0>         0.0600 
     49 H22       -30.6575   26.2106   59.8092 H         1 <0>         0.0600 
     50 H23       -30.1787   27.8822   59.7752 H         1 <0>         0.0600 
     51 H24       -32.6120   25.0852   68.2889 H         1 <0>         0.0600 
     52 H25       -32.5369   26.6528   67.5182 H         1 <0>         0.0600 
     53 H26       -27.0639   26.0368   60.9009 H         1 <0>         0.0600 
     54 H27       -28.1772   25.5681   59.6413 H         1 <0>         0.0600 
     55 H28       -33.9961   25.7965   65.6315 H         1 <0>         0.0600 
     56 H29       -29.2103   24.2247   66.4403 H         1 <0>         0.0600 
     57 H30       -28.8348   27.5932   61.8400 H         1 <0>         0.0600 
     58 H31       -30.1465   23.9725   64.1168 H         1 <0>         0.0600 
     59 H32       -29.4585   26.8342   63.7580 H         1 <0>         0.3000 
     60 H33       -27.6749   26.5973   57.6260 H         1 <0>         0.3000 
     61 H34       -34.9089   25.4202   68.3645 H         1 <0>         0.4180 
     62 H35       -26.1279   28.7683   58.1395 H         1 <0>         0.3619 
@<TRIPOS>BOND
     1    1    7 1    
     2    1   28 1    
     3    1   29 1    
     4    1   30 1    
     5    2   14 1    
     6    2   31 1    
     7    2   32 1    
     8    2   33 1    
     9    3   14 1    
    10    3   34 1    
    11    3   35 1    
    12    3   36 1    
    13    4    5 1    
    14    4    6 1    
    15    4   37 1    
    16    4   38 1    
    17    5   13 1    
    18    5   39 1    
    19    5   40 1    
    20    6   22 1    
    21    6   41 1    
    22    6   42 1    
    23    7    8 1    
    24    7   43 1    
    25    7   44 1    
    26    8    9 1    
    27    8   45 1    
    28    8   46 1    
    29    9   10 1    
    30    9   47 1    
    31    9   48 1    
    32   10   15 1    
    33   10   49 1    
    34   10   50 1    
    35   11   13 1    
    36   11   23 1    
    37   11   51 1    
    38   11   52 1    
    39   12   15 1    
    40   12   17 1    
    41   12   53 1    
    42   12   54 1    
    43   13   22 1    
    44   13   55 1    
    45   14   16 1    
    46   14   56 1    
    47   15   18 1    
    48   15   57 1    
    49   16   19 1    
    50   16   20 1    
    51   16   58 1    
    52   17   21 am   BACKBONE|DICT|INTERRES
    53   17   25 2    
    54   18   20 am   BACKBONE|DICT|INTERRES
    55   18   26 2    
    56   19   22 am   BACKBONE|DICT|INTERRES
    57   19   27 2    
    58   20   59 1    
    59   21   24 1    
    60   21   60 1    
    61   23   61 1    
    62   24   62 1    
@<TRIPOS>SUBSTRUCTURE
     1 <0>         1 GROUP             0       ****    0 ROOT    
@<TRIPOS>MOLECULE
BB2_501_1LRU
62   62    1
SMALL
USER_CHARGES


@<TRIPOS>ATOM
      1 C1        -35.0566   28.9076   60.2105 C.3       1 <0>        -0.1800 
      2 C2        -27.8941   26.0268   65.9397 C.3       1 <0>        -0.1800 
      3 C3        -27.3763   23.7758   64.9307 C.3       1 <0>        -0.1800 
      4 C4        -33.6443   22.8757   64.9385 C.3       1 <0>        -0.1200 
      5 C5        -34.0424   23.6838   66.1635 C.3       1 <0>        -0.1200 
      6 C6        -32.1966   23.2836   64.6704 C.3       1 <0>        -0.0500 
      7 C7        -33.9201   27.9501   60.5794 C.3       1 <0>        -0.1200 
      8 C8        -32.9149   28.6254   61.5232 C.3       1 <0>        -0.1200 
      9 C9        -31.7234   27.7408   61.9184 C.3       1 <0>        -0.1200 
     10 C10       -30.7342   27.4802   60.7570 C.3       1 <0>        -0.1200 
     11 C11       -32.9721   25.6257   67.4495 C.3       1 <0>         0.1450 
     12 C12       -28.5127   26.4611   59.9697 C.3       1 <0>        -0.1200 
     13 C13       -33.2150   24.9713   66.0639 C.3       1 <0>         0.0100 
     14 C14       -28.4904   24.6911   65.4607 C.3       1 <0>        -0.0600 
     15 C15       -29.3937   26.8330   61.1873 C.3       1 <0>        -0.0600 
     16 C16       -29.6541   24.8035   64.4286 C.3       1 <0>         0.1400 
     17 C17       -27.7221   27.6392   59.3936 C.2       1 <0>         0.5000 
     18 C18       -29.6274   25.6041   62.0733 C.2       1 <0>         0.5000 
     19 C19       -30.9235   25.3811   65.1118 C.2       1 <0>         0.5000 
     20 N1        -29.2656   25.7185   63.3581 N.am      1 <0>        -0.5000 
     21 N2        -27.8084   27.8235   58.0661 N.am      1 <0>        -0.2244 
     22 N3        -31.9923   24.5780   65.3340 N.am      1 <0>        -0.1400 
     23 O1        -34.2001   25.9669   68.0654 O.3       1 <0>        -0.6830 
     24 O2        -26.6147   28.2697   57.4535 O.3       1 <0>        -0.4375 
     25 O3        -26.9963   28.3118   60.1257 O.2       1 <0>        -0.5000 
     26 O4        -30.1585   24.5961   61.6074 O.2       1 <0>        -0.5000 
     27 O5        -30.9288   26.5686   65.4336 O.2       1 <0>        -0.5000 
     28 H1        -35.7136   28.4767   59.4620 H         1 <0>         0.0600 
     29 H2        -34.6565   29.8273   59.7901 H         1 <0>         0.0600 
     30 H3        -35.6601   29.1607   61.0849 H         1 <0>         0.0600 
     31 H4        -27.4896   26.6194   65.1240 H         1 <0>         0.0600 
     32 H5        -28.6362   26.6228   66.4617 H         1 <0>         0.0600 
     33 H6        -27.0853   25.8616   66.6468 H         1 <0>         0.0600 
     34 H7        -26.8840   24.2085   64.0604 H         1 <0>         0.0600 
     35 H8        -26.6167   23.6045   65.6929 H         1 <0>         0.0600 
     36 H9        -27.7686   22.8019   64.6428 H         1 <0>         0.0600 
     37 H10       -34.2688   23.1604   64.0909 H         1 <0>         0.0600 
     38 H11       -33.7589   21.8001   65.0836 H         1 <0>         0.0600 
     39 H12       -35.1153   23.8680   66.2026 H         1 <0>         0.0600 
     40 H13       -33.7657   23.1278   67.0605 H         1 <0>         0.0600 
     41 H14       -32.0264   23.3623   63.5944 H         1 <0>         0.0600 
     42 H15       -31.5012   22.5388   65.0548 H         1 <0>         0.0600 
     43 H16       -34.3178   27.0496   61.0533 H         1 <0>         0.0600 
     44 H17       -33.4180   27.6330   59.6666 H         1 <0>         0.0600 
     45 H18       -32.5417   29.5354   61.0581 H         1 <0>         0.0600 
     46 H19       -33.4349   28.9331   62.4315 H         1 <0>         0.0600 
     47 H20       -31.1880   28.2236   62.7358 H         1 <0>         0.0600 
     48 H21       -32.1030   26.8008   62.3221 H         1 <0>         0.0600 
     49 H22       -31.2150   26.8572   60.0028 H         1 <0>         0.0600 
     50 H23       -30.5141   28.4301   60.2666 H         1 <0>         0.0600 
     51 H24       -32.4188   24.9582   68.1079 H         1 <0>         0.0600 
     52 H25       -32.3918   26.5464   67.3736 H         1 <0>         0.0600 
     53 H26       -27.7786   25.7026   60.2473 H         1 <0>         0.0600 
     54 H27       -29.1311   26.0082   59.1963 H         1 <0>         0.0600 
     55 H28       -33.7462   25.6823   65.4275 H         1 <0>         0.0600 
     56 H29       -28.8950   24.2122   66.3512 H         1 <0>         0.0600 
     57 H30       -28.8610   27.5662   61.7957 H         1 <0>         0.0600 
     58 H31       -29.8328   23.8130   64.0160 H         1 <0>         0.0600 
     59 H32       -28.8570   26.5945   63.6543 H         1 <0>         0.3000 
     60 H33       -28.2537   27.1329   57.4687 H         1 <0>         0.3000 
     61 H34       -34.7393   25.1873   68.1117 H         1 <0>         0.4180 
     62 H35       -26.8996   28.5836   56.6051 H         1 <0>         0.3619 
@<TRIPOS>BOND
     1    1    7 1    
     2    1   28 1    
     3    1   29 1    
     4    1   30 1    
     5    2   14 1    
     6    2   31 1    
     7    2   32 1    
     8    2   33 1    
     9    3   14 1    
    10    3   34 1    
    11    3   35 1    
    12    3   36 1    
    13    4    5 1    
    14    4    6 1    
    15    4   37 1    
    16    4   38 1    
    17    5   13 1    
    18    5   39 1    
    19    5   40 1    
    20    6   22 1    
    21    6   41 1    
    22    6   42 1    
    23    7    8 1    
    24    7   43 1    
    25    7   44 1    
    26    8    9 1    
    27    8   45 1    
    28    8   46 1    
    29    9   10 1    
    30    9   47 1    
    31    9   48 1    
    32   10   15 1    
    33   10   49 1    
    34   10   50 1    
    35   11   13 1    
    36   11   23 1    
    37   11   51 1    
    38   11   52 1    
    39   12   15 1    
    40   12   17 1    
    41   12   53 1    
    42   12   54 1    
    43   13   22 1    
    44   13   55 1    
    45   14   16 1    
    46   14   56 1    
    47   15   18 1    
    48   15   57 1    
    49   16   19 1    
    50   16   20 1    
    51   16   58 1    
    52   17   21 am   BACKBONE|DICT|INTERRES
    53   17   25 2    
    54   18   20 am   BACKBONE|DICT|INTERRES
    55   18   26 2    
    56   19   22 am   BACKBONE|DICT|INTERRES
    57   19   27 2    
    58   20   59 1    
    59   21   24 1    
    60   21   60 1    
    61   23   61 1    
    62   24   62 1    
@<TRIPOS>SUBSTRUCTURE
     1 <0>         1 GROUP             0       ****    0 ROOT    
@<TRIPOS>MOLECULE
BB2_501_1LRU
62   62    1
SMALL
USER_CHARGES


@<TRIPOS>ATOM
      1 C1        -35.1110   29.0228   60.1863 C.3       1 <0>        -0.1800 
      2 C2        -28.1855   26.0132   65.9977 C.3       1 <0>        -0.1800 
      3 C3        -27.7985   23.8543   64.7565 C.3       1 <0>        -0.1800 
      4 C4        -33.8104   23.1327   65.7168 C.3       1 <0>        -0.1200 
      5 C5        -34.2149   24.1905   66.7239 C.3       1 <0>        -0.1200 
      6 C6        -32.4062   23.5435   65.2852 C.3       1 <0>        -0.0500 
      7 C7        -34.0294   28.0181   60.5775 C.3       1 <0>        -0.1200 
      8 C8        -33.0057   28.6676   61.5168 C.3       1 <0>        -0.1200 
      9 C9        -31.8193   27.7694   61.8690 C.3       1 <0>        -0.1200 
     10 C10       -30.8238   27.5467   60.7061 C.3       1 <0>        -0.1200 
     11 C11       -33.1763   26.3714   67.5005 C.3       1 <0>         0.1450 
     12 C12       -28.5779   26.5632   59.9200 C.3       1 <0>        -0.1200 
     13 C13       -33.4654   25.4566   66.2853 C.3       1 <0>         0.0100 
     14 C14       -28.8576   24.7657   65.4049 C.3       1 <0>        -0.0600 
     15 C15       -29.4677   26.9313   61.1346 C.3       1 <0>        -0.0600 
     16 C16       -30.0243   25.0559   64.4211 C.3       1 <0>         0.1400 
     17 C17       -27.6588   27.6893   59.4432 C.2       1 <0>         0.5000 
     18 C18       -29.6806   25.7128   62.0431 C.2       1 <0>         0.5000 
     19 C19       -31.2354   25.7296   65.1226 C.2       1 <0>         0.5000 
     20 N1        -29.5636   25.9428   63.3571 N.am      1 <0>        -0.5000 
     21 N2        -27.5069   27.8155   58.1218 N.am      1 <0>        -0.2244 
     22 N3        -32.2669   24.9707   65.5688 N.am      1 <0>        -0.1400 
     23 O1        -34.3774   26.8276   68.0914 O.3       1 <0>        -0.6830 
     24 O2        -26.2122   28.2198   57.7445 O.3       1 <0>        -0.4375 
     25 O3        -27.0063   28.3534   60.2503 O.2       1 <0>        -0.5000 
     26 O4        -29.9975   24.6240   61.5602 O.2       1 <0>        -0.5000 
     27 O5        -31.2257   26.9540   65.2535 O.2       1 <0>        -0.5000 
     28 H1        -35.8093   28.6211   59.4590 H         1 <0>         0.0600 
     29 H2        -34.6368   29.8819   59.7241 H         1 <0>         0.0600 
     30 H3        -35.6813   29.3654   61.0518 H         1 <0>         0.0600 
     31 H4        -27.7169   26.6234   65.2309 H         1 <0>         0.0600 
     32 H5        -28.9073   26.6248   66.5319 H         1 <0>         0.0600 
     33 H6        -27.4116   25.7407   66.7145 H         1 <0>         0.0600 
     34 H7        -27.2695   24.3678   63.9558 H         1 <0>         0.0600 
     35 H8        -27.0563   23.5296   65.4875 H         1 <0>         0.0600 
     36 H9        -28.2460   22.9593   64.3241 H         1 <0>         0.0600 
     37 H10       -34.4827   23.1650   64.8609 H         1 <0>         0.0600 
     38 H11       -33.8373   22.1255   66.1282 H         1 <0>         0.0600 
     39 H12       -35.2947   24.3359   66.7679 H         1 <0>         0.0600 
     40 H13       -33.8836   23.8827   67.7148 H         1 <0>         0.0600 
     41 H14       -32.2799   23.3045   64.2288 H         1 <0>         0.0600 
     42 H15       -31.6386   23.0235   65.8528 H         1 <0>         0.0600 
     43 H16       -34.4816   27.1509   61.0595 H         1 <0>         0.0600 
     44 H17       -33.5398   27.6591   59.6725 H         1 <0>         0.0600 
     45 H18       -32.6245   29.5827   61.0728 H         1 <0>         0.0600 
     46 H19       -33.5114   28.9601   62.4371 H         1 <0>         0.0600 
     47 H20       -31.2864   28.2234   62.7059 H         1 <0>         0.0600 
     48 H21       -32.1996   26.8164   62.2383 H         1 <0>         0.0600 
     49 H22       -31.2914   26.9159   59.9504 H         1 <0>         0.0600 
     50 H23       -30.6230   28.5024   60.2183 H         1 <0>         0.0600 
     51 H24       -32.6078   25.8236   68.2502 H         1 <0>         0.0600 
     52 H25       -32.6093   27.2585   67.2270 H         1 <0>         0.0600 
     53 H26       -27.9167   25.7293   60.1666 H         1 <0>         0.0600 
     54 H27       -29.1995   26.2153   59.0914 H         1 <0>         0.0600 
     55 H28       -34.0669   25.9981   65.5557 H         1 <0>         0.0600 
     56 H29       -29.2815   24.2236   66.2479 H         1 <0>         0.0600 
     57 H30       -28.9517   27.6777   61.7425 H         1 <0>         0.0600 
     58 H31       -30.3166   24.1059   63.9777 H         1 <0>         0.0600 
     59 H32       -29.3385   26.8836   63.6480 H         1 <0>         0.3000 
     60 H33       -27.8700   27.1468   57.4519 H         1 <0>         0.3000 
     61 H34       -34.8869   27.2687   67.4280 H         1 <0>         0.4180 
     62 H35       -25.8045   28.3955   58.5834 H         1 <0>         0.3619 
@<TRIPOS>BOND
     1    1    7 1    
     2    1   28 1    
     3    1   29 1    
     4    1   30 1    
     5    2   14 1    
     6    2   31 1    
     7    2   32 1    
     8    2   33 1    
     9    3   14 1    
    10    3   34 1    
    11    3   35 1    
    12    3   36 1    
    13    4    5 1    
    14    4    6 1    
    15    4   37 1    
    16    4   38 1    
    17    5   13 1    
    18    5   39 1    
    19    5   40 1    
    20    6   22 1    
    21    6   41 1    
    22    6   42 1    
    23    7    8 1    
    24    7   43 1    
    25    7   44 1    
    26    8    9 1    
    27    8   45 1    
    28    8   46 1    
    29    9   10 1    
    30    9   47 1    
    31    9   48 1    
    32   10   15 1    
    33   10   49 1    
    34   10   50 1    
    35   11   13 1    
    36   11   23 1    
    37   11   51 1    
    38   11   52 1    
    39   12   15 1    
    40   12   17 1    
    41   12   53 1    
    42   12   54 1    
    43   13   22 1    
    44   13   55 1    
    45   14   16 1    
    46   14   56 1    
    47   15   18 1    
    48   15   57 1    
    49   16   19 1    
    50   16   20 1    
    51   16   58 1    
    52   17   21 am   BACKBONE|DICT|INTERRES
    53   17   25 2    
    54   18   20 am   BACKBONE|DICT|INTERRES
    55   18   26 2    
    56   19   22 am   BACKBONE|DICT|INTERRES
    57   19   27 2    
    58   20   59 1    
    59   21   24 1    
    60   21   60 1    
    61   23   61 1    
    62   24   62 1    
@<TRIPOS>SUBSTRUCTURE
     1 <0>         1 GROUP             0       ****    0 ROOT    
@<TRIPOS>MOLECULE
BB2_501_1LRU
62   62    1
SMALL
USER_CHARGES


@<TRIPOS>ATOM
      1 C1        -35.1284   28.9028   60.2279 C.3       1 <0>        -0.1800 
      2 C2        -27.9287   26.0221   65.9222 C.3       1 <0>        -0.1800 
      3 C3        -27.3929   23.7799   64.8964 C.3       1 <0>        -0.1800 
      4 C4        -33.6433   22.8180   64.9341 C.3       1 <0>        -0.1200 
      5 C5        -34.0424   23.6144   66.1676 C.3       1 <0>        -0.1200 
      6 C6        -32.1993   23.2384   64.6664 C.3       1 <0>        -0.0500 
      7 C7        -33.9806   27.9494   60.5824 C.3       1 <0>        -0.1200 
      8 C8        -32.9608   28.6181   61.5185 C.3       1 <0>        -0.1200 
      9 C9        -31.7678   27.7342   61.9037 C.3       1 <0>        -0.1200 
     10 C10       -30.7801   27.4721   60.7448 C.3       1 <0>        -0.1200 
     11 C11       -32.9798   25.5565   67.4608 C.3       1 <0>         0.1450 
     12 C12       -28.5527   26.4668   59.9511 C.3       1 <0>        -0.1200 
     13 C13       -33.2286   24.9112   66.0705 C.3       1 <0>         0.0100 
     14 C14       -28.5139   24.6847   65.4353 C.3       1 <0>        -0.0600 
     15 C15       -29.4326   26.8346   61.1704 C.3       1 <0>        -0.0600 
     16 C16       -29.6798   24.7927   64.4048 C.3       1 <0>         0.1400 
     17 C17       -27.7346   27.6337   59.3849 C.2       1 <0>         0.5000 
     18 C18       -29.6577   25.6036   62.0560 C.2       1 <0>         0.5000 
     19 C19       -30.9530   25.3505   65.0971 C.2       1 <0>         0.5000 
     20 N1        -29.3025   25.7208   63.3419 N.am      1 <0>        -0.5000 
     21 N2        -27.8089   27.8235   58.0593 N.am      1 <0>        -0.2244 
     22 N3        -32.0077   24.5310   65.3296 N.am      1 <0>        -0.1400 
     23 O1        -34.2050   25.8985   68.0847 O.3       1 <0>        -0.6830 
     24 O2        -26.6122   28.2704   57.4533 O.3       1 <0>        -0.4375 
     25 O3        -27.0047   28.2912   60.1252 O.2       1 <0>        -0.5000 
     26 O4        -30.1780   24.5918   61.5846 O.2       1 <0>        -0.5000 
     27 O5        -30.9734   26.5392   65.4147 O.2       1 <0>        -0.5000 
     28 H1        -35.8049   28.4940   59.4752 H         1 <0>         0.0600 
     29 H2        -34.7293   29.8233   59.8125 H         1 <0>         0.0600 
     30 H3        -35.7162   29.1578   61.1069 H         1 <0>         0.0600 
     31 H4        -27.5059   26.6122   65.1086 H         1 <0>         0.0600 
     32 H5        -28.6833   26.6236   66.4204 H         1 <0>         0.0600 
     33 H6        -27.1387   25.8611   66.6511 H         1 <0>         0.0600 
     34 H7        -26.9283   24.2024   64.0051 H         1 <0>         0.0600 
     35 H8        -26.6112   23.6387   65.6441 H         1 <0>         0.0600 
     36 H9        -27.7728   22.7899   64.6403 H         1 <0>         0.0600 
     37 H10       -34.2745   23.1066   64.0908 H         1 <0>         0.0600 
     38 H11       -33.7515   21.7401   65.0716 H         1 <0>         0.0600 
     39 H12       -35.1171   23.7957   66.2151 H         1 <0>         0.0600 
     40 H13       -33.7566   23.0558   67.0607 H         1 <0>         0.0600 
     41 H14       -32.0330   23.3113   63.5898 H         1 <0>         0.0600 
     42 H15       -31.4972   22.4984   65.0534 H         1 <0>         0.0600 
     43 H16       -34.3721   27.0456   61.0534 H         1 <0>         0.0600 
     44 H17       -33.4860   27.6325   59.6630 H         1 <0>         0.0600 
     45 H18       -32.5835   29.5279   61.0552 H         1 <0>         0.0600 
     46 H19       -33.4713   28.9308   62.4314 H         1 <0>         0.0600 
     47 H20       -31.2318   28.2239   62.7190 H         1 <0>         0.0600 
     48 H21       -32.1419   26.7951   62.3148 H         1 <0>         0.0600 
     49 H22       -31.2664   26.8395   59.9996 H         1 <0>         0.0600 
     50 H23       -30.5703   28.4192   60.2423 H         1 <0>         0.0600 
     51 H24       -32.4268   24.8815   68.1144 H         1 <0>         0.0600 
     52 H25       -32.3946   26.4734   67.3931 H         1 <0>         0.0600 
     53 H26       -27.8297   25.6958   60.2221 H         1 <0>         0.0600 
     54 H27       -29.1755   26.0354   59.1692 H         1 <0>         0.0600 
     55 H28       -33.7659   25.6234   65.4427 H         1 <0>         0.0600 
     56 H29       -28.9112   24.1957   66.3254 H         1 <0>         0.0600 
     57 H30       -28.9055   27.5730   61.7780 H         1 <0>         0.0600 
     58 H31       -29.8499   23.8039   63.9863 H         1 <0>         0.0600 
     59 H32       -28.9099   26.5982   63.6428 H         1 <0>         0.3000 
     60 H33       -28.2491   27.1361   57.4540 H         1 <0>         0.3000 
     61 H34       -34.7299   25.1151   68.1592 H         1 <0>         0.4180 
     62 H35       -26.8939   28.5824   56.6017 H         1 <0>         0.3619 
@<TRIPOS>BOND
     1    1    7 1    
     2    1   28 1    
     3    1   29 1    
     4    1   30 1    
     5    2   14 1    
     6    2   31 1    
     7    2   32 1    
     8    2   33 1    
     9    3   14 1    
    10    3   34 1    
    11    3   35 1    
    12    3   36 1    
    13    4    5 1    
    14    4    6 1    
    15    4   37 1    
    16    4   38 1    
    17    5   13 1    
    18    5   39 1    
    19    5   40 1    
    20    6   22 1    
    21    6   41 1    
    22    6   42 1    
    23    7    8 1    
    24    7   43 1    
    25    7   44 1    
    26    8    9 1    
    27    8   45 1    
    28    8   46 1    
    29    9   10 1    
    30    9   47 1    
    31    9   48 1    
    32   10   15 1    
    33   10   49 1    
    34   10   50 1    
    35   11   13 1    
    36   11   23 1    
    37   11   51 1    
    38   11   52 1    
    39   12   15 1    
    40   12   17 1    
    41   12   53 1    
    42   12   54 1    
    43   13   22 1    
    44   13   55 1    
    45   14   16 1    
    46   14   56 1    
    47   15   18 1    
    48   15   57 1    
    49   16   19 1    
    50   16   20 1    
    51   16   58 1    
    52   17   21 am   BACKBONE|DICT|INTERRES
    53   17   25 2    
    54   18   20 am   BACKBONE|DICT|INTERRES
    55   18   26 2    
    56   19   22 am   BACKBONE|DICT|INTERRES
    57   19   27 2    
    58   20   59 1    
    59   21   24 1    
    60   21   60 1    
    61   23   61 1    
    62   24   62 1    
@<TRIPOS>SUBSTRUCTURE
     1 <0>         1 GROUP             0       ****    0 ROOT    
@<TRIPOS>MOLECULE
BB2_501_1LRU
62   62    1
SMALL
USER_CHARGES


@<TRIPOS>ATOM
      1 C1        -35.0697   29.0067   60.1395 C.3       1 <0>        -0.1800 
      2 C2        -27.8761   26.0293   65.8920 C.3       1 <0>        -0.1800 
      3 C3        -27.4092   23.7741   64.8688 C.3       1 <0>        -0.1800 
      4 C4        -33.6652   22.9461   65.0461 C.3       1 <0>        -0.1200 
      5 C5        -34.0513   23.7747   66.2587 C.3       1 <0>        -0.1200 
      6 C6        -32.2084   23.3251   64.7916 C.3       1 <0>        -0.0500 
      7 C7        -33.9978   28.0016   60.5685 C.3       1 <0>        -0.1200 
      8 C8        -32.9728   28.6497   61.5084 C.3       1 <0>        -0.1200 
      9 C9        -31.7897   27.7488   61.8904 C.3       1 <0>        -0.1200 
     10 C10       -30.7987   27.4838   60.7324 C.3       1 <0>        -0.1200 
     11 C11       -32.9397   25.7045   67.5177 C.3       1 <0>         0.1450 
     12 C12       -28.5720   26.4583   59.9509 C.3       1 <0>        -0.1200 
     13 C13       -33.2117   25.0556   66.1376 C.3       1 <0>         0.0100 
     14 C14       -28.5002   24.7022   65.4287 C.3       1 <0>        -0.0600 
     15 C15       -29.4533   26.8436   61.1666 C.3       1 <0>        -0.0600 
     16 C16       -29.6861   24.8365   64.4266 C.3       1 <0>         0.1400 
     17 C17       -27.7198   27.6052   59.3970 C.2       1 <0>         0.5000 
     18 C18       -29.6879   25.6237   62.0656 C.2       1 <0>         0.5000 
     19 C19       -30.9315   25.4328   65.1390 C.2       1 <0>         0.5000 
     20 N1        -29.3096   25.7450   63.3470 N.am      1 <0>        -0.5000 
     21 N2        -27.8089   27.8235   58.0765 N.am      1 <0>        -0.2244 
     22 N3        -32.0041   24.6449   65.3925 N.am      1 <0>        -0.1400 
     23 O1        -34.1562   26.0493   68.1558 O.3       1 <0>        -0.6830 
     24 O2        -26.6085   28.2294   57.4531 O.3       1 <0>        -0.4375 
     25 O3        -26.9518   28.2211   60.1358 O.2       1 <0>        -0.5000 
     26 O4        -30.2412   24.6180   61.6139 O.2       1 <0>        -0.5000 
     27 O5        -30.9150   26.6238   65.4506 O.2       1 <0>        -0.5000 
     28 H1        -35.8078   28.5689   59.4701 H         1 <0>         0.0600 
     29 H2        -34.6099   29.8275   59.5946 H         1 <0>         0.0600 
     30 H3        -35.5965   29.4218   60.9984 H         1 <0>         0.0600 
     31 H4        -27.5082   26.6231   65.0566 H         1 <0>         0.0600 
     32 H5        -28.5925   26.6235   66.4503 H         1 <0>         0.0600 
     33 H6        -27.0302   25.8541   66.5563 H         1 <0>         0.0600 
     34 H7        -26.9608   24.1830   63.9637 H         1 <0>         0.0600 
     35 H8        -26.6102   23.6255   65.5979 H         1 <0>         0.0600 
     36 H9        -27.8105   22.7890   64.6267 H         1 <0>         0.0600 
     37 H10       -34.2743   23.2424   64.1912 H         1 <0>         0.0600 
     38 H11       -33.8068   21.8754   65.1979 H         1 <0>         0.0600 
     39 H12       -35.1230   23.9777   66.2987 H         1 <0>         0.0600 
     40 H13       -33.7815   23.2294   67.1657 H         1 <0>         0.0600 
     41 H14       -32.0117   23.3275   63.7187 H         1 <0>         0.0600 
     42 H15       -31.5302   22.6139   65.2574 H         1 <0>         0.0600 
     43 H16       -34.4668   27.1521   61.0690 H         1 <0>         0.0600 
     44 H17       -33.5039   27.6110   59.6789 H         1 <0>         0.0600 
     45 H18       -32.5829   29.5559   61.0550 H         1 <0>         0.0600 
     46 H19       -33.4850   28.9622   62.4194 H         1 <0>         0.0600 
     47 H20       -31.2513   28.2217   62.7108 H         1 <0>         0.0600 
     48 H21       -32.1758   26.8107   62.2915 H         1 <0>         0.0600 
     49 H22       -31.2802   26.8493   59.9876 H         1 <0>         0.0600 
     50 H23       -30.5827   28.4255   60.2275 H         1 <0>         0.0600 
     51 H24       -32.3805   25.0231   68.1603 H         1 <0>         0.0600 
     52 H25       -32.3509   26.6155   67.4315 H         1 <0>         0.0600 
     53 H26       -27.8780   25.6584   60.2224 H         1 <0>         0.0600 
     54 H27       -29.2020   26.0442   59.1636 H         1 <0>         0.0600 
     55 H28       -33.7450   25.7716   65.5070 H         1 <0>         0.0600 
     56 H29       -28.8869   24.2224   66.3287 H         1 <0>         0.0600 
     57 H30       -28.9202   27.5852   61.7680 H         1 <0>         0.0600 
     58 H31       -29.8871   23.8499   64.0202 H         1 <0>         0.0600 
     59 H32       -28.8935   26.6197   63.6322 H         1 <0>         0.3000 
     60 H33       -28.2912   27.1666   57.4740 H         1 <0>         0.3000 
     61 H34       -34.6866   25.2699   68.2206 H         1 <0>         0.4180 
     62 H35       -26.8938   28.5769   56.6165 H         1 <0>         0.3619 
@<TRIPOS>BOND
     1    1    7 1    
     2    1   28 1    
     3    1   29 1    
     4    1   30 1    
     5    2   14 1    
     6    2   31 1    
     7    2   32 1    
     8    2   33 1    
     9    3   14 1    
    10    3   34 1    
    11    3   35 1    
    12    3   36 1    
    13    4    5 1    
    14    4    6 1    
    15    4   37 1    
    16    4   38 1    
    17    5   13 1    
    18    5   39 1    
    19    5   40 1    
    20    6   22 1    
    21    6   41 1    
    22    6   42 1    
    23    7    8 1    
    24    7   43 1    
    25    7   44 1    
    26    8    9 1    
    27    8   45 1    
    28    8   46 1    
    29    9   10 1    
    30    9   47 1    
    31    9   48 1    
    32   10   15 1    
    33   10   49 1    
    34   10   50 1    
    35   11   13 1    
    36   11   23 1    
    37   11   51 1    
    38   11   52 1    
    39   12   15 1    
    40   12   17 1    
    41   12   53 1    
    42   12   54 1    
    43   13   22 1    
    44   13   55 1    
    45   14   16 1    
    46   14   56 1    
    47   15   18 1    
    48   15   57 1    
    49   16   19 1    
    50   16   20 1    
    51   16   58 1    
    52   17   21 am   BACKBONE|DICT|INTERRES
    53   17   25 2    
    54   18   20 am   BACKBONE|DICT|INTERRES
    55   18   26 2    
    56   19   22 am   BACKBONE|DICT|INTERRES
    57   19   27 2    
    58   20   59 1    
    59   21   24 1    
    60   21   60 1    
    61   23   61 1    
    62   24   62 1    
@<TRIPOS>SUBSTRUCTURE
     1 <0>         1 GROUP             0       ****    0 ROOT    
@<TRIPOS>MOLECULE
BB2_501_1LRU
62   62    1
SMALL
USER_CHARGES


@<TRIPOS>ATOM
      1 C1        -35.0195   28.9306   60.1347 C.3       1 <0>        -0.1800 
      2 C2        -28.1383   25.9643   66.2246 C.3       1 <0>        -0.1800 
      3 C3        -27.3365   23.8647   65.0585 C.3       1 <0>        -0.1800 
      4 C4        -33.5256   22.5199   64.3820 C.3       1 <0>        -0.1200 
      5 C5        -34.1667   23.1991   65.5880 C.3       1 <0>        -0.1200 
      6 C6        -32.0789   23.0197   64.3930 C.3       1 <0>        -0.0500 
      7 C7        -33.8716   28.0290   60.6020 C.3       1 <0>        -0.1200 
      8 C8        -32.9138   28.7457   61.5644 C.3       1 <0>        -0.1200 
      9 C9        -31.7479   27.8509   62.0083 C.3       1 <0>        -0.1200 
     10 C10       -30.6805   27.6858   60.9098 C.3       1 <0>        -0.1200 
     11 C11       -33.2857   24.9662   67.1682 C.3       1 <0>         0.1450 
     12 C12       -28.5611   26.4983   60.1417 C.3       1 <0>        -0.1200 
     13 C13       -33.4195   24.5292   65.7122 C.3       1 <0>         0.0100 
     14 C14       -28.5625   24.6216   65.5974 C.3       1 <0>        -0.0600 
     15 C15       -29.4145   26.9225   61.3631 C.3       1 <0>        -0.0600 
     16 C16       -29.6957   24.7604   64.5393 C.3       1 <0>         0.1400 
     17 C17       -27.7526   27.6497   59.5294 C.2       1 <0>         0.5000 
     18 C18       -29.7786   25.6940   62.2139 C.2       1 <0>         0.5000 
     19 C19       -31.0566   25.1807   65.1344 C.2       1 <0>         0.5000 
     20 N1        -29.3116   25.6835   63.4700 N.am      1 <0>        -0.5000 
     21 N2        -27.8094   27.7805   58.1969 N.am      1 <0>        -0.2244 
     22 N3        -32.1193   24.3015   65.0879 N.am      1 <0>        -0.1400 
     23 O1        -34.5422   25.2264   67.7620 O.3       1 <0>        -0.6830 
     24 O2        -26.7248   28.4730   57.6182 O.3       1 <0>        -0.4375 
     25 O3        -27.0543   28.3670   60.2473 O.2       1 <0>        -0.5000 
     26 O4        -30.4484   24.7812   61.7313 O.2       1 <0>        -0.5000 
     27 O5        -31.1570   26.2940   65.6555 O.2       1 <0>        -0.5000 
     28 H1        -35.6815   28.3952   59.4538 H         1 <0>         0.0600 
     29 H2        -34.6423   29.8087   59.6097 H         1 <0>         0.0600 
     30 H3        -35.6185   29.2752   60.9782 H         1 <0>         0.0600 
     31 H4        -27.6955   26.6327   65.4859 H         1 <0>         0.0600 
     32 H5        -28.9846   26.4816   66.6767 H         1 <0>         0.0600 
     33 H6        -27.3977   25.8102   67.0097 H         1 <0>         0.0600 
     34 H7        -26.8234   24.4291   64.2808 H         1 <0>         0.0600 
     35 H8        -26.6142   23.6742   65.8526 H         1 <0>         0.0600 
     36 H9        -27.6216   22.9005   64.6370 H         1 <0>         0.0600 
     37 H10       -34.0209   22.8520   63.4697 H         1 <0>         0.0600 
     38 H11       -33.5975   21.4329   64.4199 H         1 <0>         0.0600 
     39 H12       -35.2435   23.3280   65.4793 H         1 <0>         0.0600 
     40 H13       -33.9943   22.5977   66.4806 H         1 <0>         0.0600 
     41 H14       -31.6788   23.1131   63.3834 H         1 <0>         0.0600 
     42 H15       -31.4379   22.3343   64.9475 H         1 <0>         0.0600 
     43 H16       -34.2851   27.1444   61.0877 H         1 <0>         0.0600 
     44 H17       -33.3184   27.6730   59.7321 H         1 <0>         0.0600 
     45 H18       -32.5196   29.6418   61.0832 H         1 <0>         0.0600 
     46 H19       -33.4670   29.0839   62.4416 H         1 <0>         0.0600 
     47 H20       -31.2863   28.2746   62.9011 H         1 <0>         0.0600 
     48 H21       -32.1414   26.8759   62.2981 H         1 <0>         0.0600 
     49 H22       -31.1223   27.1905   60.0437 H         1 <0>         0.0600 
     50 H23       -30.3868   28.6782   60.5656 H         1 <0>         0.0600 
     51 H24       -32.7590   24.2200   67.7630 H         1 <0>         0.0600 
     52 H25       -32.6901   25.8779   67.2227 H         1 <0>         0.0600 
     53 H26       -27.8980   25.6738   60.4102 H         1 <0>         0.0600 
     54 H27       -29.2126   26.1154   59.3558 H         1 <0>         0.0600 
     55 H28       -33.9402   25.3186   65.1701 H         1 <0>         0.0600 
     56 H29       -28.9539   24.0125   66.4130 H         1 <0>         0.0600 
     57 H30       -28.8257   27.6094   61.9743 H         1 <0>         0.0600 
     58 H31       -29.8431   23.7846   64.0764 H         1 <0>         0.0600 
     59 H32       -28.6235   26.3790   63.7216 H         1 <0>         0.3000 
     60 H33       -28.2113   27.1244   57.5423 H         1 <0>         0.3000 
     61 H34       -34.4430   25.1975   68.7016 H         1 <0>         0.4180 
     62 H35       -27.0318   28.6492   56.7398 H         1 <0>         0.3619 
@<TRIPOS>BOND
     1    1    7 1    
     2    1   28 1    
     3    1   29 1    
     4    1   30 1    
     5    2   14 1    
     6    2   31 1    
     7    2   32 1    
     8    2   33 1    
     9    3   14 1    
    10    3   34 1    
    11    3   35 1    
    12    3   36 1    
    13    4    5 1    
    14    4    6 1    
    15    4   37 1    
    16    4   38 1    
    17    5   13 1    
    18    5   39 1    
    19    5   40 1    
    20    6   22 1    
    21    6   41 1    
    22    6   42 1    
    23    7    8 1    
    24    7   43 1    
    25    7   44 1    
    26    8    9 1    
    27    8   45 1    
    28    8   46 1    
    29    9   10 1    
    30    9   47 1    
    31    9   48 1    
    32   10   15 1    
    33   10   49 1    
    34   10   50 1    
    35   11   13 1    
    36   11   23 1    
    37   11   51 1    
    38   11   52 1    
    39   12   15 1    
    40   12   17 1    
    41   12   53 1    
    42   12   54 1    
    43   13   22 1    
    44   13   55 1    
    45   14   16 1    
    46   14   56 1    
    47   15   18 1    
    48   15   57 1    
    49   16   19 1    
    50   16   20 1    
    51   16   58 1    
    52   17   21 am   BACKBONE|DICT|INTERRES
    53   17   25 2    
    54   18   20 am   BACKBONE|DICT|INTERRES
    55   18   26 2    
    56   19   22 am   BACKBONE|DICT|INTERRES
    57   19   27 2    
    58   20   59 1    
    59   21   24 1    
    60   21   60 1    
    61   23   61 1    
    62   24   62 1    
@<TRIPOS>SUBSTRUCTURE
     1 <0>         1 GROUP             0       ****    0 ROOT    
@<TRIPOS>MOLECULE
BB2_501_1LRU
62   62    1
SMALL
USER_CHARGES


@<TRIPOS>ATOM
      1 C1        -33.9362   27.9767   63.0971 C.3       1 <0>        -0.1800 
      2 C2        -28.2167   26.0135   65.9087 C.3       1 <0>        -0.1800 
      3 C3        -27.8854   23.8541   64.6409 C.3       1 <0>        -0.1800 
      4 C4        -34.0384   23.1709   65.3550 C.3       1 <0>        -0.1200 
      5 C5        -34.3691   24.0697   66.5307 C.3       1 <0>        -0.1200 
      6 C6        -32.6031   23.5470   64.9947 C.3       1 <0>        -0.0500 
      7 C7        -34.0886   27.1033   61.8448 C.3       1 <0>        -0.1200 
      8 C8        -32.7544   26.5607   61.3092 C.3       1 <0>        -0.1200 
      9 C9        -31.7797   27.6624   60.8458 C.3       1 <0>        -0.1200 
     10 C10       -30.5026   27.1444   60.1479 C.3       1 <0>        -0.1200 
     11 C11       -33.2123   26.0728   67.6119 C.3       1 <0>         0.1450 
     12 C12       -28.0257   26.4617   60.2872 C.3       1 <0>        -0.1200 
     13 C13       -33.5493   25.3447   66.2886 C.3       1 <0>         0.0100 
     14 C14       -28.9120   24.7693   65.3322 C.3       1 <0>        -0.0600 
     15 C15       -29.2986   26.8323   61.0788 C.3       1 <0>        -0.0600 
     16 C16       -30.1214   25.0827   64.4085 C.3       1 <0>         0.1400 
     17 C17       -27.4552   27.6148   59.4661 C.2       1 <0>         0.5000 
     18 C18       -29.6106   25.6835   62.0440 C.2       1 <0>         0.5000 
     19 C19       -31.3265   25.6869   65.1631 C.2       1 <0>         0.5000 
     20 N1        -29.7366   26.0026   63.3390 N.am      1 <0>        -0.5000 
     21 N2        -27.4095   27.4232   58.1457 N.am      1 <0>        -0.2244 
     22 N3        -32.3783   24.9032   65.5074 N.am      1 <0>        -0.1400 
     23 O1        -34.3993   26.4936   68.2532 O.3       1 <0>        -0.6830 
     24 O2        -26.4896   28.2232   57.4532 O.3       1 <0>        -0.4375 
     25 O3        -27.0089   28.6228   60.0151 O.2       1 <0>        -0.5000 
     26 O4        -29.7485   24.5397   61.6117 O.2       1 <0>        -0.5000 
     27 O5        -31.2863   26.8866   65.4379 O.2       1 <0>        -0.5000 
     28 H1        -34.9109   28.2232   63.5126 H         1 <0>         0.0600 
     29 H2        -33.4287   28.9163   62.8791 H         1 <0>         0.0600 
     30 H3        -33.3717   27.4616   63.8722 H         1 <0>         0.0600 
     31 H4        -27.7957   26.6355   65.1219 H         1 <0>         0.0600 
     32 H5        -28.9117   26.6236   66.4807 H         1 <0>         0.0600 
     33 H6        -27.4093   25.7332   66.5835 H         1 <0>         0.0600 
     34 H7        -27.4011   24.3570   63.8023 H         1 <0>         0.0600 
     35 H8        -27.1063   23.5413   65.3371 H         1 <0>         0.0600 
     36 H9        -28.3558   22.9491   64.2553 H         1 <0>         0.0600 
     37 H10       -34.6988   23.4017   64.5186 H         1 <0>         0.0600 
     38 H11       -34.1512   22.1114   65.5849 H         1 <0>         0.0600 
     39 H12       -35.4381   24.2676   66.6158 H         1 <0>         0.0600 
     40 H13       -34.0488   23.5807   67.4525 H         1 <0>         0.0600 
     41 H14       -32.4797   23.4926   63.9121 H         1 <0>         0.0600 
     42 H15       -31.8875   22.8648   65.4518 H         1 <0>         0.0600 
     43 H16       -34.7298   26.2570   62.0936 H         1 <0>         0.0600 
     44 H17       -34.6094   27.6626   61.0653 H         1 <0>         0.0600 
     45 H18       -32.3000   25.9459   62.0833 H         1 <0>         0.0600 
     46 H19       -32.9604   25.8908   60.4742 H         1 <0>         0.0600 
     47 H20       -32.3117   28.3049   60.1431 H         1 <0>         0.0600 
     48 H21       -31.5001   28.3049   61.6810 H         1 <0>         0.0600 
     49 H22       -30.7371   26.2805   59.5213 H         1 <0>         0.0600 
     50 H23       -30.1936   27.9252   59.4533 H         1 <0>         0.0600 
     51 H24       -32.6468   25.4203   68.2781 H         1 <0>         0.0600 
     52 H25       -32.6148   26.9687   67.4534 H         1 <0>         0.0600 
     53 H26       -27.2406   26.1394   60.9733 H         1 <0>         0.0600 
     54 H27       -28.2204   25.6090   59.6326 H         1 <0>         0.0600 
     55 H28       -34.1210   26.0176   65.6456 H         1 <0>         0.0600 
     56 H29       -29.3020   24.2234   66.1901 H         1 <0>         0.0600 
     57 H30       -29.0863   27.7268   61.6700 H         1 <0>         0.0600 
     58 H31       -30.4145   24.1370   63.9590 H         1 <0>         0.0600 
     59 H32       -29.6483   26.9718   63.6057 H         1 <0>         0.3000 
     60 H33       -27.6900   26.6079   57.6099 H         1 <0>         0.3000 
     61 H34       -34.9652   25.7426   68.3470 H         1 <0>         0.4180 
     62 H35       -26.1550   28.7898   58.1354 H         1 <0>         0.3619 
@<TRIPOS>BOND
     1    1    7 1    
     2    1   28 1    
     3    1   29 1    
     4    1   30 1    
     5    2   14 1    
     6    2   31 1    
     7    2   32 1    
     8    2   33 1    
     9    3   14 1    
    10    3   34 1    
    11    3   35 1    
    12    3   36 1    
    13    4    5 1    
    14    4    6 1    
    15    4   37 1    
    16    4   38 1    
    17    5   13 1    
    18    5   39 1    
    19    5   40 1    
    20    6   22 1    
    21    6   41 1    
    22    6   42 1    
    23    7    8 1    
    24    7   43 1    
    25    7   44 1    
    26    8    9 1    
    27    8   45 1    
    28    8   46 1    
    29    9   10 1    
    30    9   47 1    
    31    9   48 1    
    32   10   15 1    
    33   10   49 1    
    34   10   50 1    
    35   11   13 1    
    36   11   23 1    
    37   11   51 1    
    38   11   52 1    
    39   12   15 1    
    40   12   17 1    
    41   12   53 1    
    42   12   54 1    
    43   13   22 1    
    44   13   55 1    
    45   14   16 1    
    46   14   56 1    
    47   15   18 1    
    48   15   57 1    
    49   16   19 1    
    50   16   20 1    
    51   16   58 1    
    52   17   21 am   BACKBONE|DICT|INTERRES
    53   17   25 2    
    54   18   20 am   BACKBONE|DICT|INTERRES
    55   18   26 2    
    56   19   22 am   BACKBONE|DICT|INTERRES
    57   19   27 2    
    58   20   59 1    
    59   21   24 1    
    60   21   60 1    
    61   23   61 1    
    62   24   62 1    
@<TRIPOS>SUBSTRUCTURE
     1 <0>         1 GROUP             0       ****    0 ROOT    
@<TRIPOS>MOLECULE
BB2_501_1LRU
62   62    1
SMALL
USER_CHARGES


@<TRIPOS>ATOM
      1 C1        -35.0564   28.8870   60.2293 C.3       1 <0>        -0.1800 
      2 C2        -27.9204   26.0289   65.8911 C.3       1 <0>        -0.1800 
      3 C3        -27.3826   23.7619   64.9309 C.3       1 <0>        -0.1800 
      4 C4        -33.6851   22.8594   64.7622 C.3       1 <0>        -0.1200 
      5 C5        -34.1262   23.6263   65.9972 C.3       1 <0>        -0.1200 
      6 C6        -32.2076   23.2165   64.6045 C.3       1 <0>        -0.0500 
      7 C7        -33.9146   27.9320   60.5979 C.3       1 <0>        -0.1200 
      8 C8        -32.9131   28.6066   61.5434 C.3       1 <0>        -0.1200 
      9 C9        -31.7140   27.7311   61.9263 C.3       1 <0>        -0.1200 
     10 C10       -30.7394   27.4599   60.7572 C.3       1 <0>        -0.1200 
     11 C11       -33.0060   25.4113   67.4451 C.3       1 <0>         0.1450 
     12 C12       -28.5238   26.4466   59.9445 C.3       1 <0>        -0.1200 
     13 C13       -33.2427   24.8832   66.0081 C.3       1 <0>         0.0100 
     14 C14       -28.5084   24.6779   65.4440 C.3       1 <0>        -0.0600 
     15 C15       -29.3984   26.8047   61.1725 C.3       1 <0>        -0.0600 
     16 C16       -29.6713   24.7619   64.4088 C.3       1 <0>         0.1400 
     17 C17       -27.7294   27.6291   59.3815 C.2       1 <0>         0.5000 
     18 C18       -29.6281   25.5644   62.0472 C.2       1 <0>         0.5000 
     19 C19       -30.9508   25.3136   65.0856 C.2       1 <0>         0.5000 
     20 N1        -29.3011   25.6896   63.3403 N.am      1 <0>        -0.5000 
     21 N2        -27.8091   27.8236   58.0581 N.am      1 <0>        -0.2244 
     22 N3        -32.0138   24.4984   65.2886 N.am      1 <0>        -0.1400 
     23 O1        -34.2098   25.9064   68.0001 O.3       1 <0>        -0.6830 
     24 O2        -26.6237   28.2955   57.4539 O.3       1 <0>        -0.4375 
     25 O3        -27.0086   28.2970   60.1226 O.2       1 <0>        -0.5000 
     26 O4        -30.1224   24.5437   61.5654 O.2       1 <0>        -0.5000 
     27 O5        -30.9712   26.5000   65.4197 O.2       1 <0>        -0.5000 
     28 H1        -35.6931   28.4672   59.4534 H         1 <0>         0.0600 
     29 H2        -34.6624   29.8236   59.8379 H         1 <0>         0.0600 
     30 H3        -35.6796   29.1158   61.0922 H         1 <0>         0.0600 
     31 H4        -27.5431   26.6174   65.0549 H         1 <0>         0.0600 
     32 H5        -28.6652   26.6240   66.4145 H         1 <0>         0.0600 
     33 H6        -27.0925   25.8886   66.5816 H         1 <0>         0.0600 
     34 H7        -26.9025   24.1785   64.0439 H         1 <0>         0.0600 
     35 H8        -26.6103   23.6184   65.6879 H         1 <0>         0.0600 
     36 H9        -27.7613   22.7731   64.6687 H         1 <0>         0.0600 
     37 H10       -34.2425   23.2182   63.8936 H         1 <0>         0.0600 
     38 H11       -33.8561   21.7831   64.8426 H         1 <0>         0.0600 
     39 H12       -35.1919   23.8593   65.9844 H         1 <0>         0.0600 
     40 H13       -33.9308   23.0173   66.8817 H         1 <0>         0.0600 
     41 H14       -31.9539   23.2769   63.5449 H         1 <0>         0.0600 
     42 H15       -31.5666   22.4549   65.0505 H         1 <0>         0.0600 
     43 H16       -34.3176   27.0256   61.0560 H         1 <0>         0.0600 
     44 H17       -33.4124   27.6201   59.6824 H         1 <0>         0.0600 
     45 H18       -32.5522   29.5219   61.0800 H         1 <0>         0.0600 
     46 H19       -33.4333   28.9076   62.4541 H         1 <0>         0.0600 
     47 H20       -31.1671   28.2221   62.7290 H         1 <0>         0.0600 
     48 H21       -32.0838   26.7933   62.3427 H         1 <0>         0.0600 
     49 H22       -31.2330   26.8373   60.0091 H         1 <0>         0.0600 
     50 H23       -30.5178   28.4069   60.2600 H         1 <0>         0.0600 
     51 H24       -32.6091   24.6270   68.0857 H         1 <0>         0.0600 
     52 H25       -32.2909   26.2308   67.4638 H         1 <0>         0.0600 
     53 H26       -27.7946   25.6779   60.2064 H         1 <0>         0.0600 
     54 H27       -29.1511   26.0087   59.1658 H         1 <0>         0.0600 
     55 H28       -33.7253   25.6618   65.4126 H         1 <0>         0.0600 
     56 H29       -28.9038   24.2098   66.3478 H         1 <0>         0.0600 
     57 H30       -28.8593   27.5319   61.7874 H         1 <0>         0.0600 
     58 H31       -29.8286   23.7672   63.9996 H         1 <0>         0.0600 
     59 H32       -28.9303   26.5770   63.6480 H         1 <0>         0.3000 
     60 H33       -28.2434   27.1336   57.4545 H         1 <0>         0.3000 
     61 H34       -34.8490   25.2097   67.9876 H         1 <0>         0.4180 
     62 H35       -26.9125   28.6036   56.6028 H         1 <0>         0.3619 
@<TRIPOS>BOND
     1    1    7 1    
     2    1   28 1    
     3    1   29 1    
     4    1   30 1    
     5    2   14 1    
     6    2   31 1    
     7    2   32 1    
     8    2   33 1    
     9    3   14 1    
    10    3   34 1    
    11    3   35 1    
    12    3   36 1    
    13    4    5 1    
    14    4    6 1    
    15    4   37 1    
    16    4   38 1    
    17    5   13 1    
    18    5   39 1    
    19    5   40 1    
    20    6   22 1    
    21    6   41 1    
    22    6   42 1    
    23    7    8 1    
    24    7   43 1    
    25    7   44 1    
    26    8    9 1    
    27    8   45 1    
    28    8   46 1    
    29    9   10 1    
    30    9   47 1    
    31    9   48 1    
    32   10   15 1    
    33   10   49 1    
    34   10   50 1    
    35   11   13 1    
    36   11   23 1    
    37   11   51 1    
    38   11   52 1    
    39   12   15 1    
    40   12   17 1    
    41   12   53 1    
    42   12   54 1    
    43   13   22 1    
    44   13   55 1    
    45   14   16 1    
    46   14   56 1    
    47   15   18 1    
    48   15   57 1    
    49   16   19 1    
    50   16   20 1    
    51   16   58 1    
    52   17   21 am   BACKBONE|DICT|INTERRES
    53   17   25 2    
    54   18   20 am   BACKBONE|DICT|INTERRES
    55   18   26 2    
    56   19   22 am   BACKBONE|DICT|INTERRES
    57   19   27 2    
    58   20   59 1    
    59   21   24 1    
    60   21   60 1    
    61   23   61 1    
    62   24   62 1    
@<TRIPOS>SUBSTRUCTURE
     1 <0>         1 GROUP             0       ****    0 ROOT    
@<TRIPOS>MOLECULE
BB2_501_1LRU
62   62    1
SMALL
USER_CHARGES


@<TRIPOS>ATOM
      1 C1        -34.5796   27.8265   62.0538 C.3       1 <0>        -0.1800 
      2 C2        -28.1890   26.0200   66.0605 C.3       1 <0>        -0.1800 
      3 C3        -27.7160   23.8243   64.9170 C.3       1 <0>        -0.1800 
      4 C4        -33.9371   23.0466   65.2139 C.3       1 <0>        -0.1200 
      5 C5        -34.3267   23.9294   66.3896 C.3       1 <0>        -0.1200 
      6 C6        -32.4800   23.4048   64.9474 C.3       1 <0>        -0.0500 
      7 C7        -33.7879   28.8210   61.2009 C.3       1 <0>        -0.1200 
      8 C8        -32.6657   28.1749   60.3748 C.3       1 <0>        -0.1200 
      9 C9        -31.5495   27.5481   61.2191 C.3       1 <0>        -0.1200 
     10 C10       -30.3565   27.0981   60.3598 C.3       1 <0>        -0.1200 
     11 C11       -33.1166   25.8184   67.6138 C.3       1 <0>         0.1450 
     12 C12       -27.9464   26.2328   60.2514 C.3       1 <0>        -0.1200 
     13 C13       -33.4598   25.1906   66.2418 C.3       1 <0>         0.0100 
     14 C14       -28.8110   24.7307   65.5066 C.3       1 <0>        -0.0600 
     15 C15       -29.1096   26.6605   61.1688 C.3       1 <0>        -0.0600 
     16 C16       -29.9713   24.9494   64.4969 C.3       1 <0>         0.1400 
     17 C17       -27.3129   27.4020   59.5026 C.2       1 <0>         0.5000 
     18 C18       -29.4500   25.5171   62.1274 C.2       1 <0>         0.5000 
     19 C19       -31.2310   25.5555   65.1570 C.2       1 <0>         0.5000 
     20 N1        -29.5459   25.8419   63.4235 N.am      1 <0>        -0.5000 
     21 N2        -27.5028   27.4235   58.1830 N.am      1 <0>        -0.2244 
     22 N3        -32.2755   24.7567   65.4768 N.am      1 <0>        -0.1400 
     23 O1        -34.2827   26.2967   68.2534 O.3       1 <0>        -0.6830 
     24 O2        -26.6094   28.2248   57.4533 O.3       1 <0>        -0.4375 
     25 O3        -26.6139   28.2226   60.0931 O.2       1 <0>        -0.5000 
     26 O4        -29.6347   24.3782   61.6967 O.2       1 <0>        -0.5000 
     27 O5        -31.2395   26.7670   65.3868 O.2       1 <0>        -0.5000 
     28 H1        -35.4093   28.3336   62.5470 H         1 <0>         0.0600 
     29 H2        -33.9643   27.3814   62.8357 H         1 <0>         0.0600 
     30 H3        -34.9991   27.0229   61.4503 H         1 <0>         0.0600 
     31 H4        -27.7441   26.6237   65.2674 H         1 <0>         0.0600 
     32 H5        -28.9332   26.6223   66.5773 H         1 <0>         0.0600 
     33 H6        -27.4110   25.7925   66.7829 H         1 <0>         0.0600 
     34 H7        -27.2087   24.2979   64.0778 H         1 <0>         0.0600 
     35 H8        -26.9585   23.5833   65.6636 H         1 <0>         0.0600 
     36 H9        -28.1274   22.8794   64.5591 H         1 <0>         0.0600 
     37 H10       -34.5438   23.3057   64.3447 H         1 <0>         0.0600 
     38 H11       -34.0805   21.9835   65.4126 H         1 <0>         0.0600 
     39 H12       -35.3947   24.1511   66.4040 H         1 <0>         0.0600 
     40 H13       -34.0839   23.4071   67.3166 H         1 <0>         0.0600 
     41 H14       -32.2835   23.3433   63.8762 H         1 <0>         0.0600 
     42 H15       -31.8035   22.7191   65.4522 H         1 <0>         0.0600 
     43 H16       -34.4765   29.3306   60.5248 H         1 <0>         0.0600 
     44 H17       -33.3685   29.5960   61.8474 H         1 <0>         0.0600 
     45 H18       -33.0873   27.4238   59.7028 H         1 <0>         0.0600 
     46 H19       -32.2233   28.9422   59.7403 H         1 <0>         0.0600 
     47 H20       -31.2091   28.2676   61.9633 H         1 <0>         0.0600 
     48 H21       -31.9521   26.7024   61.7768 H         1 <0>         0.0600 
     49 H22       -30.6739   26.2936   59.6951 H         1 <0>         0.0600 
     50 H23       -30.0767   27.9287   59.7123 H         1 <0>         0.0600 
     51 H24       -32.6165   25.0944   68.2580 H         1 <0>         0.0600 
     52 H25       -32.4479   26.6693   67.5123 H         1 <0>         0.0600 
     53 H26       -27.1558   25.7634   60.8379 H         1 <0>         0.0600 
     54 H27       -28.2837   25.4735   59.5406 H         1 <0>         0.0600 
     55 H28       -33.9928   25.9204   65.6266 H         1 <0>         0.0600 
     56 H29       -29.2337   24.2226   66.3732 H         1 <0>         0.0600 
     57 H30       -28.7790   27.5124   61.7668 H         1 <0>         0.0600 
     58 H31       -30.2056   23.9731   64.0758 H         1 <0>         0.0600 
     59 H32       -29.4137   26.8094   63.6849 H         1 <0>         0.3000 
     60 H33       -27.9689   26.7399   57.5963 H         1 <0>         0.3000 
     61 H34       -34.9077   25.5872   68.3038 H         1 <0>         0.4180 
     62 H35       -26.0925   28.6307   58.1378 H         1 <0>         0.3619 
@<TRIPOS>BOND
     1    1    7 1    
     2    1   28 1    
     3    1   29 1    
     4    1   30 1    
     5    2   14 1    
     6    2   31 1    
     7    2   32 1    
     8    2   33 1    
     9    3   14 1    
    10    3   34 1    
    11    3   35 1    
    12    3   36 1    
    13    4    5 1    
    14    4    6 1    
    15    4   37 1    
    16    4   38 1    
    17    5   13 1    
    18    5   39 1    
    19    5   40 1    
    20    6   22 1    
    21    6   41 1    
    22    6   42 1    
    23    7    8 1    
    24    7   43 1    
    25    7   44 1    
    26    8    9 1    
    27    8   45 1    
    28    8   46 1    
    29    9   10 1    
    30    9   47 1    
    31    9   48 1    
    32   10   15 1    
    33   10   49 1    
    34   10   50 1    
    35   11   13 1    
    36   11   23 1    
    37   11   51 1    
    38   11   52 1    
    39   12   15 1    
    40   12   17 1    
    41   12   53 1    
    42   12   54 1    
    43   13   22 1    
    44   13   55 1    
    45   14   16 1    
    46   14   56 1    
    47   15   18 1    
    48   15   57 1    
    49   16   19 1    
    50   16   20 1    
    51   16   58 1    
    52   17   21 am   BACKBONE|DICT|INTERRES
    53   17   25 2    
    54   18   20 am   BACKBONE|DICT|INTERRES
    55   18   26 2    
    56   19   22 am   BACKBONE|DICT|INTERRES
    57   19   27 2    
    58   20   59 1    
    59   21   24 1    
    60   21   60 1    
    61   23   61 1    
    62   24   62 1    
@<TRIPOS>SUBSTRUCTURE
     1 <0>         1 GROUP             0       ****    0 ROOT    
@<TRIPOS>MOLECULE
BB2_501_1LRU
62   62    1
SMALL
USER_CHARGES


@<TRIPOS>ATOM
      1 C1        -35.0607   29.0081   60.1140 C.3       1 <0>        -0.1800 
      2 C2        -27.9014   26.0305   65.9507 C.3       1 <0>        -0.1800 
      3 C3        -27.4059   23.7949   64.9071 C.3       1 <0>        -0.1800 
      4 C4        -33.6805   22.9536   65.0681 C.3       1 <0>        -0.1200 
      5 C5        -34.0724   23.7835   66.2770 C.3       1 <0>        -0.1200 
      6 C6        -32.2177   23.3250   64.8282 C.3       1 <0>        -0.0500 
      7 C7        -33.9853   28.0055   60.5528 C.3       1 <0>        -0.1200 
      8 C8        -32.9664   28.6465   61.5050 C.3       1 <0>        -0.1200 
      9 C9        -31.7881   27.7394   61.8998 C.3       1 <0>        -0.1200 
     10 C10       -30.7871   27.4775   60.7500 C.3       1 <0>        -0.1200 
     11 C11       -32.9577   25.7098   67.5388 C.3       1 <0>         0.1450 
     12 C12       -28.5608   26.4556   59.9687 C.3       1 <0>        -0.1200 
     13 C13       -33.2260   25.0624   66.1569 C.3       1 <0>         0.0100 
     14 C14       -28.5151   24.7063   65.4652 C.3       1 <0>        -0.0600 
     15 C15       -29.4435   26.8366   61.1865 C.3       1 <0>        -0.0600 
     16 C16       -29.6946   24.8398   64.4558 C.3       1 <0>         0.1400 
     17 C17       -27.7176   27.6062   59.4055 C.2       1 <0>         0.5000 
     18 C18       -29.6701   25.6159   62.0884 C.2       1 <0>         0.5000 
     19 C19       -30.9456   25.4375   65.1561 C.2       1 <0>         0.5000 
     20 N1        -29.3116   25.7472   63.3749 N.am      1 <0>        -0.5000 
     21 N2        -27.8094   27.8233   58.0837 N.am      1 <0>        -0.2244 
     22 N3        -32.0160   24.6486   65.4196 N.am      1 <0>        -0.1400 
     23 O1        -34.1708   26.0836   68.1656 O.3       1 <0>        -0.6830 
     24 O2        -26.6083   28.2241   57.4561 O.3       1 <0>        -0.4375 
     25 O3        -26.9489   28.2241   60.1406 O.2       1 <0>        -0.5000 
     26 O4        -30.2053   24.6021   61.6341 O.2       1 <0>        -0.5000 
     27 O5        -30.9359   26.6321   65.4502 O.2       1 <0>        -0.5000 
     28 H1        -35.8068   28.5617   59.4544 H         1 <0>         0.0600 
     29 H2        -34.6106   29.8232   59.5581 H         1 <0>         0.0600 
     30 H3        -35.5864   29.4253   60.9734 H         1 <0>         0.0600 
     31 H4        -27.5038   26.6228   65.1284 H         1 <0>         0.0600 
     32 H5        -28.6355   26.6239   66.4875 H         1 <0>         0.0600 
     33 H6        -27.0825   25.8522   66.6466 H         1 <0>         0.0600 
     34 H7        -26.9454   24.2256   64.0151 H         1 <0>         0.0600 
     35 H8        -26.6146   23.6315   65.6417 H         1 <0>         0.0600 
     36 H9        -27.8062   22.8136   64.6364 H         1 <0>         0.0600 
     37 H10       -34.2835   23.2506   64.2078 H         1 <0>         0.0600 
     38 H11       -33.8257   21.8829   65.2190 H         1 <0>         0.0600 
     39 H12       -35.1430   23.9846   66.3149 H         1 <0>         0.0600 
     40 H13       -33.8024   23.2366   67.1826 H         1 <0>         0.0600 
     41 H14       -32.0066   23.3139   63.7566 H         1 <0>         0.0600 
     42 H15       -31.5480   22.6241   65.3154 H         1 <0>         0.0600 
     43 H16       -34.4508   27.1570   61.0532 H         1 <0>         0.0600 
     44 H17       -33.4841   27.6118   59.6684 H         1 <0>         0.0600 
     45 H18       -32.5689   29.5565   61.0652 H         1 <0>         0.0600 
     46 H19       -33.4850   28.9530   62.4130 H         1 <0>         0.0600 
     47 H20       -31.2572   28.2118   62.7280 H         1 <0>         0.0600 
     48 H21       -32.1797   26.7989   62.2912 H         1 <0>         0.0600 
     49 H22       -31.2641   26.8476   59.9981 H         1 <0>         0.0600 
     50 H23       -30.5633   28.4226   60.2541 H         1 <0>         0.0600 
     51 H24       -32.4144   25.0236   68.1909 H         1 <0>         0.0600 
     52 H25       -32.3509   26.6089   67.4531 H         1 <0>         0.0600 
     53 H26       -27.8547   25.6680   60.2372 H         1 <0>         0.0600 
     54 H27       -29.1880   26.0331   59.1840 H         1 <0>         0.0600 
     55 H28       -33.7536   25.7779   65.5239 H         1 <0>         0.0600 
     56 H29       -28.9044   24.2213   66.3589 H         1 <0>         0.0600 
     57 H30       -28.9066   27.5759   61.7879 H         1 <0>         0.0600 
     58 H31       -29.8905   23.8477   64.0509 H         1 <0>         0.0600 
     59 H32       -28.9193   26.6310   63.6636 H         1 <0>         0.3000 
     60 H33       -28.2959   27.1657   57.4836 H         1 <0>         0.3000 
     61 H34       -34.7159   25.3146   68.2412 H         1 <0>         0.4180 
     62 H35       -26.8916   28.5502   56.6110 H         1 <0>         0.3619 
@<TRIPOS>BOND
     1    1    7 1    
     2    1   28 1    
     3    1   29 1    
     4    1   30 1    
     5    2   14 1    
     6    2   31 1    
     7    2   32 1    
     8    2   33 1    
     9    3   14 1    
    10    3   34 1    
    11    3   35 1    
    12    3   36 1    
    13    4    5 1    
    14    4    6 1    
    15    4   37 1    
    16    4   38 1    
    17    5   13 1    
    18    5   39 1    
    19    5   40 1    
    20    6   22 1    
    21    6   41 1    
    22    6   42 1    
    23    7    8 1    
    24    7   43 1    
    25    7   44 1    
    26    8    9 1    
    27    8   45 1    
    28    8   46 1    
    29    9   10 1    
    30    9   47 1    
    31    9   48 1    
    32   10   15 1    
    33   10   49 1    
    34   10   50 1    
    35   11   13 1    
    36   11   23 1    
    37   11   51 1    
    38   11   52 1    
    39   12   15 1    
    40   12   17 1    
    41   12   53 1    
    42   12   54 1    
    43   13   22 1    
    44   13   55 1    
    45   14   16 1    
    46   14   56 1    
    47   15   18 1    
    48   15   57 1    
    49   16   19 1    
    50   16   20 1    
    51   16   58 1    
    52   17   21 am   BACKBONE|DICT|INTERRES
    53   17   25 2    
    54   18   20 am   BACKBONE|DICT|INTERRES
    55   18   26 2    
    56   19   22 am   BACKBONE|DICT|INTERRES
    57   19   27 2    
    58   20   59 1    
    59   21   24 1    
    60   21   60 1    
    61   23   61 1    
    62   24   62 1    
@<TRIPOS>SUBSTRUCTURE
     1 <0>         1 GROUP             0       ****    0 ROOT    
@<TRIPOS>MOLECULE
BB2_501_1LRU
62   62    1
SMALL
USER_CHARGES


@<TRIPOS>ATOM
      1 C1        -35.1544   28.8871   60.2383 C.3       1 <0>        -0.1800 
      2 C2        -28.1935   26.0220   66.0672 C.3       1 <0>        -0.1800 
      3 C3        -27.7643   23.8463   64.8742 C.3       1 <0>        -0.1800 
      4 C4        -33.7735   23.1158   65.6925 C.3       1 <0>        -0.1200 
      5 C5        -34.1913   24.1659   66.7008 C.3       1 <0>        -0.1200 
      6 C6        -32.3647   23.5316   65.2786 C.3       1 <0>        -0.0500 
      7 C7        -33.9940   27.9481   60.5795 C.3       1 <0>        -0.1200 
      8 C8        -32.9877   28.6322   61.5173 C.3       1 <0>        -0.1200 
      9 C9        -31.7890   27.7549   61.8876 C.3       1 <0>        -0.1200 
     10 C10       -30.7968   27.5277   60.7247 C.3       1 <0>        -0.1200 
     11 C11       -33.1736   26.3602   67.4867 C.3       1 <0>         0.1450 
     12 C12       -28.5520   26.5608   59.9404 C.3       1 <0>        -0.1200 
     13 C13       -33.4463   25.4373   66.2754 C.3       1 <0>         0.0100 
     14 C14       -28.8428   24.7649   65.4708 C.3       1 <0>        -0.0600 
     15 C15       -29.4392   26.9227   61.1576 C.3       1 <0>        -0.0600 
     16 C16       -29.9817   25.0431   64.4504 C.3       1 <0>         0.1400 
     17 C17       -27.6535   27.7003   59.4509 C.2       1 <0>         0.5000 
     18 C18       -29.6407   25.7065   62.0715 C.2       1 <0>         0.5000 
     19 C19       -31.2067   25.7187   65.1281 C.2       1 <0>         0.5000 
     20 N1        -29.5063   25.9283   63.3871 N.am      1 <0>        -0.5000 
     21 N2        -27.5084   27.8230   58.1244 N.am      1 <0>        -0.2244 
     22 N3        -32.2388   24.9585   65.5673 N.am      1 <0>        -0.1400 
     23 O1        -34.3800   26.8072   68.0799 O.3       1 <0>        -0.6830 
     24 O2        -26.2131   28.2215   57.7467 O.3       1 <0>        -0.4375 
     25 O3        -27.0088   28.3767   60.2512 O.2       1 <0>        -0.5000 
     26 O4        -29.9635   24.6177   61.5944 O.2       1 <0>        -0.5000 
     27 O5        -31.2048   26.9466   65.2513 O.2       1 <0>        -0.5000 
     28 H1        -35.8057   28.4726   59.4709 H         1 <0>         0.0600 
     29 H2        -34.7719   29.8235   59.8439 H         1 <0>         0.0600 
     30 H3        -35.7554   29.1094   61.1189 H         1 <0>         0.0600 
     31 H4        -27.7360   26.6427   65.2976 H         1 <0>         0.0600 
     32 H5        -28.9286   26.6233   66.6007 H         1 <0>         0.0600 
     33 H6        -27.4140   25.7634   66.7814 H         1 <0>         0.0600 
     34 H7        -27.2302   24.3343   64.0591 H         1 <0>         0.0600 
     35 H8        -27.0320   23.5618   65.6306 H         1 <0>         0.0600 
     36 H9        -28.1995   22.9239   64.4865 H         1 <0>         0.0600 
     37 H10       -34.4343   23.1609   64.8261 H         1 <0>         0.0600 
     38 H11       -33.8162   22.0999   66.0861 H         1 <0>         0.0600 
     39 H12       -35.2718   24.3043   66.7397 H         1 <0>         0.0600 
     40 H13       -33.8607   23.8516   67.6921 H         1 <0>         0.0600 
     41 H14       -32.2183   23.2989   64.2220 H         1 <0>         0.0600 
     42 H15       -31.5943   23.0256   65.8531 H         1 <0>         0.0600 
     43 H16       -34.3715   27.0358   61.0530 H         1 <0>         0.0600 
     44 H17       -33.4958   27.6426   59.6584 H         1 <0>         0.0600 
     45 H18       -32.6228   29.5461   61.0536 H         1 <0>         0.0600 
     46 H19       -33.5037   28.9289   62.4325 H         1 <0>         0.0600 
     47 H20       -31.2585   28.2229   62.7154 H         1 <0>         0.0600 
     48 H21       -32.1558   26.8032   62.2772 H         1 <0>         0.0600 
     49 H22       -31.2646   26.8819   59.9812 H         1 <0>         0.0600 
     50 H23       -30.6049   28.4781   60.2276 H         1 <0>         0.0600 
     51 H24       -32.5995   25.8243   68.2447 H         1 <0>         0.0600 
     52 H25       -32.6091   27.2481   67.2134 H         1 <0>         0.0600 
     53 H26       -27.8874   25.7282   60.1814 H         1 <0>         0.0600 
     54 H27       -29.1777   26.2079   59.1178 H         1 <0>         0.0600 
     55 H28       -34.0442   25.9768   65.5383 H         1 <0>         0.0600 
     56 H29       -29.2855   24.2234   66.3074 H         1 <0>         0.0600 
     57 H30       -28.9280   27.6744   61.7628 H         1 <0>         0.0600 
     58 H31       -30.2611   24.0896   64.0056 H         1 <0>         0.0600 
     59 H32       -29.2673   26.8656   63.6801 H         1 <0>         0.3000 
     60 H33       -27.8684   27.1449   57.4622 H         1 <0>         0.3000 
     61 H34       -34.8884   27.2444   67.4145 H         1 <0>         0.4180 
     62 H35       -25.7975   28.3808   58.5838 H         1 <0>         0.3619 
@<TRIPOS>BOND
     1    1    7 1    
     2    1   28 1    
     3    1   29 1    
     4    1   30 1    
     5    2   14 1    
     6    2   31 1    
     7    2   32 1    
     8    2   33 1    
     9    3   14 1    
    10    3   34 1    
    11    3   35 1    
    12    3   36 1    
    13    4    5 1    
    14    4    6 1    
    15    4   37 1    
    16    4   38 1    
    17    5   13 1    
    18    5   39 1    
    19    5   40 1    
    20    6   22 1    
    21    6   41 1    
    22    6   42 1    
    23    7    8 1    
    24    7   43 1    
    25    7   44 1    
    26    8    9 1    
    27    8   45 1    
    28    8   46 1    
    29    9   10 1    
    30    9   47 1    
    31    9   48 1    
    32   10   15 1    
    33   10   49 1    
    34   10   50 1    
    35   11   13 1    
    36   11   23 1    
    37   11   51 1    
    38   11   52 1    
    39   12   15 1    
    40   12   17 1    
    41   12   53 1    
    42   12   54 1    
    43   13   22 1    
    44   13   55 1    
    45   14   16 1    
    46   14   56 1    
    47   15   18 1    
    48   15   57 1    
    49   16   19 1    
    50   16   20 1    
    51   16   58 1    
    52   17   21 am   BACKBONE|DICT|INTERRES
    53   17   25 2    
    54   18   20 am   BACKBONE|DICT|INTERRES
    55   18   26 2    
    56   19   22 am   BACKBONE|DICT|INTERRES
    57   19   27 2    
    58   20   59 1    
    59   21   24 1    
    60   21   60 1    
    61   23   61 1    
    62   24   62 1    
@<TRIPOS>SUBSTRUCTURE
     1 <0>         1 GROUP             0       ****    0 ROOT    
@<TRIPOS>MOLECULE
BB2_501_1LRU
62   62    1
SMALL
USER_CHARGES


@<TRIPOS>ATOM
      1 C1        -34.9728   28.8720   60.2280 C.3       1 <0>        -0.1800 
      2 C2        -28.0961   26.0265   66.1588 C.3       1 <0>        -0.1800 
      3 C3        -27.4139   23.8369   65.1194 C.3       1 <0>        -0.1800 
      4 C4        -33.7036   22.8311   64.7614 C.3       1 <0>        -0.1200 
      5 C5        -34.1580   23.5990   65.9920 C.3       1 <0>        -0.1200 
      6 C6        -32.2309   23.2112   64.6064 C.3       1 <0>        -0.0500 
      7 C7        -33.8054   27.9441   60.5870 C.3       1 <0>        -0.1200 
      8 C8        -32.8031   28.6251   61.5256 C.3       1 <0>        -0.1200 
      9 C9        -31.6216   27.7415   61.9409 C.3       1 <0>        -0.1200 
     10 C10       -30.6094   27.4711   60.8032 C.3       1 <0>        -0.1200 
     11 C11       -33.0421   25.4005   67.4389 C.3       1 <0>         0.1450 
     12 C12       -28.3813   26.4186   60.0700 C.3       1 <0>        -0.1200 
     13 C13       -33.2951   24.8700   66.0033 C.3       1 <0>         0.0100 
     14 C14       -28.6033   24.6865   65.5965 C.3       1 <0>        -0.0600 
     15 C15       -29.2824   26.8138   61.2623 C.3       1 <0>        -0.0600 
     16 C16       -29.6929   24.7851   64.4890 C.3       1 <0>         0.1400 
     17 C17       -27.6145   27.5940   59.4596 C.2       1 <0>         0.5000 
     18 C18       -29.5549   25.5894   62.1463 C.2       1 <0>         0.5000 
     19 C19       -31.0159   25.3360   65.0837 C.2       1 <0>         0.5000 
     20 N1        -29.2484   25.7056   63.4466 N.am      1 <0>        -0.5000 
     21 N2        -27.8091   27.8235   58.1527 N.am      1 <0>        -0.2244 
     22 N3        -32.0605   24.5012   65.2833 N.am      1 <0>        -0.1400 
     23 O1        -34.2372   25.8726   68.0242 O.3       1 <0>        -0.6830 
     24 O2        -26.6627   28.2691   57.4545 O.3       1 <0>        -0.4375 
     25 O3        -26.8089   28.2234   60.1475 O.2       1 <0>        -0.5000 
     26 O4        -30.0801   24.5854   61.6633 O.2       1 <0>        -0.5000 
     27 O5        -31.0774   26.5313   65.3759 O.2       1 <0>        -0.5000 
     28 H1        -35.6011   28.4317   59.4559 H         1 <0>         0.0600 
     29 H2        -34.6117   29.8231   59.8417 H         1 <0>         0.0600 
     30 H3        -35.5963   29.0760   61.1017 H         1 <0>         0.0600 
     31 H4        -27.5759   26.6233   65.4087 H         1 <0>         0.0600 
     32 H5        -28.9070   26.6229   66.5655 H         1 <0>         0.0600 
     33 H6        -27.4096   25.8580   66.9859 H         1 <0>         0.0600 
     34 H7        -26.8962   24.3144   64.2889 H         1 <0>         0.0600 
     35 H8        -26.6903   23.6827   65.9207 H         1 <0>         0.0600 
     36 H9        -27.7426   22.8528   64.7845 H         1 <0>         0.0600 
     37 H10       -34.2668   23.1691   63.8899 H         1 <0>         0.0600 
     38 H11       -33.8529   21.7553   64.8512 H         1 <0>         0.0600 
     39 H12       -35.2271   23.8156   65.9751 H         1 <0>         0.0600 
     40 H13       -33.9533   22.9955   66.8783 H         1 <0>         0.0600 
     41 H14       -31.9723   23.2707   63.5454 H         1 <0>         0.0600 
     42 H15       -31.5788   22.4603   65.0539 H         1 <0>         0.0600 
     43 H16       -34.1916   27.0361   61.0525 H         1 <0>         0.0600 
     44 H17       -33.3058   27.6350   59.6697 H         1 <0>         0.0600 
     45 H18       -32.4166   29.5249   61.0537 H         1 <0>         0.0600 
     46 H19       -33.3280   28.9549   62.4245 H         1 <0>         0.0600 
     47 H20       -31.0974   28.2230   62.7649 H         1 <0>         0.0600 
     48 H21       -32.0101   26.8064   62.3443 H         1 <0>         0.0600 
     49 H22       -31.0836   26.8512   60.0427 H         1 <0>         0.0600 
     50 H23       -30.3736   28.4157   60.3134 H         1 <0>         0.0600 
     51 H24       -32.6096   24.6253   68.0700 H         1 <0>         0.0600 
     52 H25       -32.3448   26.2346   67.4528 H         1 <0>         0.0600 
     53 H26       -27.6316   25.6924   60.3868 H         1 <0>         0.0600 
     54 H27       -28.9775   25.9151   59.3093 H         1 <0>         0.0600 
     55 H28       -33.7903   25.6409   65.4079 H         1 <0>         0.0600 
     56 H29       -29.0503   24.1720   66.4459 H         1 <0>         0.0600 
     57 H30       -28.7499   27.5428   61.8778 H         1 <0>         0.0600 
     58 H31       -29.8284   23.7903   64.0717 H         1 <0>         0.0600 
     59 H32       -28.8484   26.5756   63.7686 H         1 <0>         0.3000 
     60 H33       -28.3142   27.1576   57.5732 H         1 <0>         0.3000 
     61 H34       -34.8813   25.1794   67.9886 H         1 <0>         0.4180 
     62 H35       -27.0041   28.6034   56.6359 H         1 <0>         0.3619 
@<TRIPOS>BOND
     1    1    7 1    
     2    1   28 1    
     3    1   29 1    
     4    1   30 1    
     5    2   14 1    
     6    2   31 1    
     7    2   32 1    
     8    2   33 1    
     9    3   14 1    
    10    3   34 1    
    11    3   35 1    
    12    3   36 1    
    13    4    5 1    
    14    4    6 1    
    15    4   37 1    
    16    4   38 1    
    17    5   13 1    
    18    5   39 1    
    19    5   40 1    
    20    6   22 1    
    21    6   41 1    
    22    6   42 1    
    23    7    8 1    
    24    7   43 1    
    25    7   44 1    
    26    8    9 1    
    27    8   45 1    
    28    8   46 1    
    29    9   10 1    
    30    9   47 1    
    31    9   48 1    
    32   10   15 1    
    33   10   49 1    
    34   10   50 1    
    35   11   13 1    
    36   11   23 1    
    37   11   51 1    
    38   11   52 1    
    39   12   15 1    
    40   12   17 1    
    41   12   53 1    
    42   12   54 1    
    43   13   22 1    
    44   13   55 1    
    45   14   16 1    
    46   14   56 1    
    47   15   18 1    
    48   15   57 1    
    49   16   19 1    
    50   16   20 1    
    51   16   58 1    
    52   17   21 am   BACKBONE|DICT|INTERRES
    53   17   25 2    
    54   18   20 am   BACKBONE|DICT|INTERRES
    55   18   26 2    
    56   19   22 am   BACKBONE|DICT|INTERRES
    57   19   27 2    
    58   20   59 1    
    59   21   24 1    
    60   21   60 1    
    61   23   61 1    
    62   24   62 1    
@<TRIPOS>SUBSTRUCTURE
     1 <0>         1 GROUP             0       ****    0 ROOT    
@<TRIPOS>MOLECULE
BB2_501_1LRU
62   62    1
SMALL
USER_CHARGES


@<TRIPOS>ATOM
      1 C1        -34.9548   28.8021   60.1364 C.3       1 <0>        -0.1800 
      2 C2        -28.1968   25.8586   66.2200 C.3       1 <0>        -0.1800 
      3 C3        -27.1581   23.8752   65.0376 C.3       1 <0>        -0.1800 
      4 C4        -33.1992   22.0529   63.9384 C.3       1 <0>        -0.1200 
      5 C5        -33.9702   22.6179   65.1270 C.3       1 <0>        -0.1200 
      6 C6        -31.7967   22.6491   64.0813 C.3       1 <0>        -0.0500 
      7 C7        -33.7728   27.9291   60.5716 C.3       1 <0>        -0.1200 
      8 C8        -32.8266   28.6570   61.5372 C.3       1 <0>        -0.1200 
      9 C9        -31.6551   27.7741   61.9897 C.3       1 <0>        -0.1200 
     10 C10       -30.6149   27.5580   60.8742 C.3       1 <0>        -0.1200 
     11 C11       -33.3317   24.3495   66.8560 C.3       1 <0>         0.1450 
     12 C12       -28.4705   26.4139   60.1096 C.3       1 <0>        -0.1200 
     13 C13       -33.3316   23.9869   65.3737 C.3       1 <0>         0.0100 
     14 C14       -28.4688   24.4985   65.5475 C.3       1 <0>        -0.0600 
     15 C15       -29.3419   26.8072   61.3286 C.3       1 <0>        -0.0600 
     16 C16       -29.5727   24.5566   64.4517 C.3       1 <0>         0.1400 
     17 C17       -27.6668   27.5843   59.5277 C.2       1 <0>         0.5000 
     18 C18       -29.6954   25.5610   62.1577 C.2       1 <0>         0.5000 
     19 C19       -30.9874   24.8299   65.0055 C.2       1 <0>         0.5000 
     20 N1        -29.2420   25.5397   63.4187 N.am      1 <0>        -0.5000 
     21 N2        -27.8091   27.8162   58.2154 N.am      1 <0>        -0.2244 
     22 N3        -31.9779   23.8841   64.8360 N.am      1 <0>        -0.1400 
     23 O1        -34.6407   24.5355   67.3570 O.3       1 <0>        -0.6830 
     24 O2        -26.7383   28.5091   57.6121 O.3       1 <0>        -0.4375 
     25 O3        -26.8977   28.2255   60.2453 O.2       1 <0>        -0.5000 
     26 O4        -30.3452   24.6447   61.6548 O.2       1 <0>        -0.5000 
     27 O5        -31.1951   25.8877   65.6046 O.2       1 <0>        -0.5000 
     28 H1        -35.6076   28.2592   59.4525 H         1 <0>         0.0600 
     29 H2        -34.6127   29.7023   59.6251 H         1 <0>         0.0600 
     30 H3        -35.5541   29.1100   60.9937 H         1 <0>         0.0600 
     31 H4        -27.7945   26.5848   65.5134 H         1 <0>         0.0600 
     32 H5        -29.1038   26.2816   66.6520 H         1 <0>         0.0600 
     33 H6        -27.4725   25.7551   67.0283 H         1 <0>         0.0600 
     34 H7        -26.6746   24.5056   64.2922 H         1 <0>         0.0600 
     35 H8        -26.4488   23.7335   65.8533 H         1 <0>         0.0600 
     36 H9        -27.3350   22.8995   64.5842 H         1 <0>         0.0600 
     37 H10       -33.6523   22.4012   63.0102 H         1 <0>         0.0600 
     38 H11       -33.1948   20.9632   63.9152 H         1 <0>         0.0600 
     39 H12       -35.0434   22.6787   64.9461 H         1 <0>         0.0600 
     40 H13       -33.8175   21.9805   65.9980 H         1 <0>         0.0600 
     41 H14       -31.3349   22.8263   63.1100 H         1 <0>         0.0600 
     42 H15       -31.1480   21.9792   64.6457 H         1 <0>         0.0600 
     43 H16       -34.1514   27.0219   61.0440 H         1 <0>         0.0600 
     44 H17       -33.2191   27.6087   59.6882 H         1 <0>         0.0600 
     45 H18       -32.4381   29.5554   61.0557 H         1 <0>         0.0600 
     46 H19       -33.3876   28.9926   62.4104 H         1 <0>         0.0600 
     47 H20       -31.1703   28.2311   62.8534 H         1 <0>         0.0600 
     48 H21       -32.0464   26.8141   62.3283 H         1 <0>         0.0600 
     49 H22       -31.0794   27.0298   60.0399 H         1 <0>         0.0600 
     50 H23       -30.3250   28.5337   60.4823 H         1 <0>         0.0600 
     51 H24       -32.8268   23.5905   67.4535 H         1 <0>         0.0600 
     52 H25       -32.7770   25.2763   67.0055 H         1 <0>         0.0600 
     53 H26       -27.8022   25.5913   60.3706 H         1 <0>         0.0600 
     54 H27       -29.1091   26.0391   59.3093 H         1 <0>         0.0600 
     55 H28       -33.8689   24.7680   64.8359 H         1 <0>         0.0600 
     56 H29       -28.8282   23.8342   66.3343 H         1 <0>         0.0600 
     57 H30       -28.7694   27.4937   61.9556 H         1 <0>         0.0600 
     58 H31       -29.6097   23.5837   63.9615 H         1 <0>         0.0600 
     59 H32       -28.6063   26.2719   63.7020 H         1 <0>         0.3000 
     60 H33       -28.2822   27.2261   57.5458 H         1 <0>         0.3000 
     61 H34       -34.5932   24.6279   68.2965 H         1 <0>         0.4180 
     62 H35       -27.0702   28.6963   56.7450 H         1 <0>         0.3619 
@<TRIPOS>BOND
     1    1    7 1    
     2    1   28 1    
     3    1   29 1    
     4    1   30 1    
     5    2   14 1    
     6    2   31 1    
     7    2   32 1    
     8    2   33 1    
     9    3   14 1    
    10    3   34 1    
    11    3   35 1    
    12    3   36 1    
    13    4    5 1    
    14    4    6 1    
    15    4   37 1    
    16    4   38 1    
    17    5   13 1    
    18    5   39 1    
    19    5   40 1    
    20    6   22 1    
    21    6   41 1    
    22    6   42 1    
    23    7    8 1    
    24    7   43 1    
    25    7   44 1    
    26    8    9 1    
    27    8   45 1    
    28    8   46 1    
    29    9   10 1    
    30    9   47 1    
    31    9   48 1    
    32   10   15 1    
    33   10   49 1    
    34   10   50 1    
    35   11   13 1    
    36   11   23 1    
    37   11   51 1    
    38   11   52 1    
    39   12   15 1    
    40   12   17 1    
    41   12   53 1    
    42   12   54 1    
    43   13   22 1    
    44   13   55 1    
    45   14   16 1    
    46   14   56 1    
    47   15   18 1    
    48   15   57 1    
    49   16   19 1    
    50   16   20 1    
    51   16   58 1    
    52   17   21 am   BACKBONE|DICT|INTERRES
    53   17   25 2    
    54   18   20 am   BACKBONE|DICT|INTERRES
    55   18   26 2    
    56   19   22 am   BACKBONE|DICT|INTERRES
    57   19   27 2    
    58   20   59 1    
    59   21   24 1    
    60   21   60 1    
    61   23   61 1    
    62   24   62 1    
@<TRIPOS>SUBSTRUCTURE
     1 <0>         1 GROUP             0       ****    0 ROOT    
@<TRIPOS>MOLECULE
BB2_501_1LRU
62   62    1
SMALL
USER_CHARGES


@<TRIPOS>ATOM
      1 C1        -35.0249   28.9380   60.1742 C.3       1 <0>        -0.1800 
      2 C2        -28.0316   26.0284   65.9663 C.3       1 <0>        -0.1800 
      3 C3        -27.5306   23.7931   64.9191 C.3       1 <0>        -0.1800 
      4 C4        -33.7443   22.9051   65.1862 C.3       1 <0>        -0.1200 
      5 C5        -34.1542   23.7818   66.3537 C.3       1 <0>        -0.1200 
      6 C6        -32.2888   23.2830   64.9278 C.3       1 <0>        -0.0500 
      7 C7        -33.9085   27.9691   60.5688 C.3       1 <0>        -0.1200 
      8 C8        -32.9011   28.6351   61.5127 C.3       1 <0>        -0.1200 
      9 C9        -31.7172   27.7431   61.9045 C.3       1 <0>        -0.1200 
     10 C10       -30.7249   27.4764   60.7490 C.3       1 <0>        -0.1200 
     11 C11       -33.0106   25.7119   67.5674 C.3       1 <0>         0.1450 
     12 C12       -28.5005   26.4394   59.9837 C.3       1 <0>        -0.1200 
     13 C13       -33.3118   25.0564   66.1998 C.3       1 <0>         0.0100 
     14 C14       -28.6398   24.7048   65.4730 C.3       1 <0>        -0.0600 
     15 C15       -29.3917   26.8243   61.1907 C.3       1 <0>        -0.0600 
     16 C16       -29.8045   24.8522   64.4515 C.3       1 <0>         0.1400 
     17 C17       -27.6854   27.6002   59.4124 C.2       1 <0>         0.5000 
     18 C18       -29.6416   25.6032   62.0824 C.2       1 <0>         0.5000 
     19 C19       -31.0638   25.4458   65.1409 C.2       1 <0>         0.5000 
     20 N1        -29.3994   25.7676   63.3881 N.am      1 <0>        -0.5000 
     21 N2        -27.8068   27.8236   58.0943 N.am      1 <0>        -0.2244 
     22 N3        -32.1102   24.6413   65.4488 N.am      1 <0>        -0.1400 
     23 O1        -34.2084   26.0645   68.2334 O.3       1 <0>        -0.6830 
     24 O2        -26.6125   28.2236   57.4533 O.3       1 <0>        -0.4375 
     25 O3        -26.9084   28.2235   60.1357 O.2       1 <0>        -0.5000 
     26 O4        -30.0823   24.5599   61.5981 O.2       1 <0>        -0.5000 
     27 O5        -31.0775   26.6497   65.3981 O.2       1 <0>        -0.5000 
     28 H1        -35.7082   28.4982   59.4539 H         1 <0>         0.0600 
     29 H2        -34.6098   29.8235   59.7028 H         1 <0>         0.0600 
     30 H3        -35.6044   29.2483   61.0448 H         1 <0>         0.0600 
     31 H4        -27.6294   26.6236   65.1502 H         1 <0>         0.0600 
     32 H5        -28.7668   26.6229   66.5006 H         1 <0>         0.0600 
     33 H6        -27.2100   25.8438   66.6526 H         1 <0>         0.0600 
     34 H7        -27.0709   24.2184   64.0263 H         1 <0>         0.0600 
     35 H8        -26.7417   23.6377   65.6545 H         1 <0>         0.0600 
     36 H9        -27.9185   22.8082   64.6541 H         1 <0>         0.0600 
     37 H10       -34.3500   23.1534   64.3117 H         1 <0>         0.0600 
     38 H11       -33.8750   21.8391   65.3806 H         1 <0>         0.0600 
     39 H12       -35.2247   23.9843   66.3679 H         1 <0>         0.0600 
     40 H13       -33.8999   23.2688   67.2817 H         1 <0>         0.0600 
     41 H14       -32.0769   23.2188   63.8601 H         1 <0>         0.0600 
     42 H15       -31.6039   22.6239   65.4528 H         1 <0>         0.0600 
     43 H16       -34.3312   27.0888   61.0529 H         1 <0>         0.0600 
     44 H17       -33.4097   27.6161   59.6674 H         1 <0>         0.0600 
     45 H18       -32.5166   29.5419   61.0541 H         1 <0>         0.0600 
     46 H19       -33.4201   28.9456   62.4218 H         1 <0>         0.0600 
     47 H20       -31.1790   28.2235   62.7221 H         1 <0>         0.0600 
     48 H21       -32.1004   26.8064   62.3133 H         1 <0>         0.0600 
     49 H22       -31.2101   26.8480   59.9997 H         1 <0>         0.0600 
     50 H23       -30.4986   28.4201   60.2501 H         1 <0>         0.0600 
     51 H24       -32.4386   25.0281   68.1984 H         1 <0>         0.0600 
     52 H25       -32.4188   26.6209   67.4558 H         1 <0>         0.0600 
     53 H26       -27.7800   25.6715   60.2750 H         1 <0>         0.0600 
     54 H27       -29.1147   25.9916   59.2030 H         1 <0>         0.0600 
     55 H28       -33.8538   25.7662   65.5702 H         1 <0>         0.0600 
     56 H29       -29.0395   24.2122   66.3577 H         1 <0>         0.0600 
     57 H30       -28.8587   27.5565   61.8012 H         1 <0>         0.0600 
     58 H31       -30.0048   23.8721   64.0317 H         1 <0>         0.0600 
     59 H32       -29.0680   26.6699   63.6923 H         1 <0>         0.3000 
     60 H33       -28.2965   27.1637   57.4970 H         1 <0>         0.3000 
     61 H34       -34.7426   25.2885   68.3230 H         1 <0>         0.4180 
     62 H35       -26.9066   28.5704   56.6190 H         1 <0>         0.3619 
@<TRIPOS>BOND
     1    1    7 1    
     2    1   28 1    
     3    1   29 1    
     4    1   30 1    
     5    2   14 1    
     6    2   31 1    
     7    2   32 1    
     8    2   33 1    
     9    3   14 1    
    10    3   34 1    
    11    3   35 1    
    12    3   36 1    
    13    4    5 1    
    14    4    6 1    
    15    4   37 1    
    16    4   38 1    
    17    5   13 1    
    18    5   39 1    
    19    5   40 1    
    20    6   22 1    
    21    6   41 1    
    22    6   42 1    
    23    7    8 1    
    24    7   43 1    
    25    7   44 1    
    26    8    9 1    
    27    8   45 1    
    28    8   46 1    
    29    9   10 1    
    30    9   47 1    
    31    9   48 1    
    32   10   15 1    
    33   10   49 1    
    34   10   50 1    
    35   11   13 1    
    36   11   23 1    
    37   11   51 1    
    38   11   52 1    
    39   12   15 1    
    40   12   17 1    
    41   12   53 1    
    42   12   54 1    
    43   13   22 1    
    44   13   55 1    
    45   14   16 1    
    46   14   56 1    
    47   15   18 1    
    48   15   57 1    
    49   16   19 1    
    50   16   20 1    
    51   16   58 1    
    52   17   21 am   BACKBONE|DICT|INTERRES
    53   17   25 2    
    54   18   20 am   BACKBONE|DICT|INTERRES
    55   18   26 2    
    56   19   22 am   BACKBONE|DICT|INTERRES
    57   19   27 2    
    58   20   59 1    
    59   21   24 1    
    60   21   60 1    
    61   23   61 1    
    62   24   62 1    
@<TRIPOS>SUBSTRUCTURE
     1 <0>         1 GROUP             0       ****    0 ROOT    
@<TRIPOS>MOLECULE
BB2_501_1LRU
62   62    1
SMALL
USER_CHARGES


@<TRIPOS>ATOM
      1 C1        -34.9358   28.8538   60.2353 C.3       1 <0>        -0.1800 
      2 C2        -28.1121   26.0358   66.2034 C.3       1 <0>        -0.1800 
      3 C3        -27.3686   23.8430   65.2128 C.3       1 <0>        -0.1800 
      4 C4        -33.5412   22.5517   64.7050 C.3       1 <0>        -0.1200 
      5 C5        -34.0624   23.2827   65.9322 C.3       1 <0>        -0.1200 
      6 C6        -32.0957   23.0269   64.5802 C.3       1 <0>        -0.0500 
      7 C7        -33.7501   27.9445   60.5805 C.3       1 <0>        -0.1200 
      8 C8        -32.7558   28.6241   61.5293 C.3       1 <0>        -0.1200 
      9 C9        -31.5786   27.7351   61.9584 C.3       1 <0>        -0.1200 
     10 C10       -30.5581   27.4565   60.8322 C.3       1 <0>        -0.1200 
     11 C11       -33.1461   25.2061   67.3592 C.3       1 <0>         0.1450 
     12 C12       -28.3319   26.4122   60.1078 C.3       1 <0>        -0.1200 
     13 C13       -33.3038   24.6176   65.9331 C.3       1 <0>         0.0100 
     14 C14       -28.5842   24.6781   65.6522 C.3       1 <0>        -0.0600 
     15 C15       -29.2337   26.8005   61.3036 C.3       1 <0>        -0.0600 
     16 C16       -29.6541   24.7390   64.5173 C.3       1 <0>         0.1400 
     17 C17       -27.5852   27.5941   59.4790 C.2       1 <0>         0.5000 
     18 C18       -29.5075   25.5706   62.1821 C.2       1 <0>         0.5000 
     19 C19       -31.0128   25.2138   65.0998 C.2       1 <0>         0.5000 
     20 N1        -29.2319   25.6901   63.4906 N.am      1 <0>        -0.5000 
     21 N2        -27.8093   27.8234   58.1735 N.am      1 <0>        -0.2244 
     22 N3        -32.0257   24.3268   65.2536 N.am      1 <0>        -0.1400 
     23 O1        -34.4087   25.4816   67.9282 O.3       1 <0>        -0.6830 
     24 O2        -26.6723   28.2619   57.4536 O.3       1 <0>        -0.4375 
     25 O3        -26.7672   28.2231   60.1482 O.2       1 <0>        -0.5000 
     26 O4        -29.9958   24.5568   61.6842 O.2       1 <0>        -0.5000 
     27 O5        -31.1334   26.3974   65.4181 O.2       1 <0>        -0.5000 
     28 H1        -35.5496   28.4085   59.4548 H         1 <0>         0.0600 
     29 H2        -34.6101   29.8233   59.8666 H         1 <0>         0.0600 
     30 H3        -35.5684   29.0218   61.1067 H         1 <0>         0.0600 
     31 H4        -27.6080   26.6243   65.4398 H         1 <0>         0.0600 
     32 H5        -28.9359   26.6231   66.6076 H         1 <0>         0.0600 
     33 H6        -27.4105   25.8991   67.0229 H         1 <0>         0.0600 
     34 H7        -26.8257   24.3184   64.3964 H         1 <0>         0.0600 
     35 H8        -26.6703   23.7063   66.0382 H         1 <0>         0.0600 
     36 H9        -27.6684   22.8501   64.8760 H         1 <0>         0.0600 
     37 H10       -34.1111   22.8611   63.8269 H         1 <0>         0.0600 
     38 H11       -33.6271   21.4661   64.7857 H         1 <0>         0.0600 
     39 H12       -35.1448   23.4100   65.9103 H         1 <0>         0.0600 
     40 H13       -33.8130   22.7028   66.8223 H         1 <0>         0.0600 
     41 H14       -31.8205   23.0999   63.5254 H         1 <0>         0.0600 
     42 H15       -31.4109   22.3230   65.0515 H         1 <0>         0.0600 
     43 H16       -34.1212   27.0261   61.0371 H         1 <0>         0.0600 
     44 H17       -33.2431   27.6537   59.6614 H         1 <0>         0.0600 
     45 H18       -32.3641   29.5198   61.0571 H         1 <0>         0.0600 
     46 H19       -33.2879   28.9529   62.4233 H         1 <0>         0.0600 
     47 H20       -31.0620   28.2232   62.7869 H         1 <0>         0.0600 
     48 H21       -31.9700   26.8022   62.3662 H         1 <0>         0.0600 
     49 H22       -31.0285   26.8299   60.0727 H         1 <0>         0.0600 
     50 H23       -30.3204   28.3990   60.3348 H         1 <0>         0.0600 
     51 H24       -32.6093   24.5127   68.0016 H         1 <0>         0.0600 
     52 H25       -32.5849   26.1376   67.3658 H         1 <0>         0.0600 
     53 H26       -27.5694   25.6993   60.4287 H         1 <0>         0.0600 
     54 H27       -28.9197   25.8897   59.3533 H         1 <0>         0.0600 
     55 H28       -33.8421   25.3315   65.3078 H         1 <0>         0.0600 
     56 H29       -29.0325   24.1611   66.4978 H         1 <0>         0.0600 
     57 H30       -28.7044   27.5299   61.9203 H         1 <0>         0.0600 
     58 H31       -29.7357   23.7454   64.0854 H         1 <0>         0.0600 
     59 H32       -28.8758   26.5761   63.8227 H         1 <0>         0.3000 
     60 H33       -28.3213   27.1544   57.6098 H         1 <0>         0.3000 
     61 H34       -34.9078   24.6781   67.9470 H         1 <0>         0.4180 
     62 H35       -27.0272   28.5811   56.6314 H         1 <0>         0.3619 
@<TRIPOS>BOND
     1    1    7 1    
     2    1   28 1    
     3    1   29 1    
     4    1   30 1    
     5    2   14 1    
     6    2   31 1    
     7    2   32 1    
     8    2   33 1    
     9    3   14 1    
    10    3   34 1    
    11    3   35 1    
    12    3   36 1    
    13    4    5 1    
    14    4    6 1    
    15    4   37 1    
    16    4   38 1    
    17    5   13 1    
    18    5   39 1    
    19    5   40 1    
    20    6   22 1    
    21    6   41 1    
    22    6   42 1    
    23    7    8 1    
    24    7   43 1    
    25    7   44 1    
    26    8    9 1    
    27    8   45 1    
    28    8   46 1    
    29    9   10 1    
    30    9   47 1    
    31    9   48 1    
    32   10   15 1    
    33   10   49 1    
    34   10   50 1    
    35   11   13 1    
    36   11   23 1    
    37   11   51 1    
    38   11   52 1    
    39   12   15 1    
    40   12   17 1    
    41   12   53 1    
    42   12   54 1    
    43   13   22 1    
    44   13   55 1    
    45   14   16 1    
    46   14   56 1    
    47   15   18 1    
    48   15   57 1    
    49   16   19 1    
    50   16   20 1    
    51   16   58 1    
    52   17   21 am   BACKBONE|DICT|INTERRES
    53   17   25 2    
    54   18   20 am   BACKBONE|DICT|INTERRES
    55   18   26 2    
    56   19   22 am   BACKBONE|DICT|INTERRES
    57   19   27 2    
    58   20   59 1    
    59   21   24 1    
    60   21   60 1    
    61   23   61 1    
    62   24   62 1    
@<TRIPOS>SUBSTRUCTURE
     1 <0>         1 GROUP             0       ****    0 ROOT    
@<TRIPOS>MOLECULE
BB2_501_1LRU
62   62    1
SMALL
USER_CHARGES


@<TRIPOS>ATOM
      1 C1        -35.0266   28.9442   60.1766 C.3       1 <0>        -0.1800 
      2 C2        -27.8970   26.0317   65.9613 C.3       1 <0>        -0.1800 
      3 C3        -27.4038   23.7871   64.9215 C.3       1 <0>        -0.1800 
      4 C4        -33.6711   22.9595   65.0552 C.3       1 <0>        -0.1200 
      5 C5        -34.0836   23.8093   66.2441 C.3       1 <0>        -0.1200 
      6 C6        -32.2032   23.3177   64.8403 C.3       1 <0>        -0.0500 
      7 C7        -33.9112   27.9730   60.5743 C.3       1 <0>        -0.1200 
      8 C8        -32.8957   28.6379   61.5180 C.3       1 <0>        -0.1200 
      9 C9        -31.7156   27.7423   61.9108 C.3       1 <0>        -0.1200 
     10 C10       -30.7257   27.4739   60.7542 C.3       1 <0>        -0.1200 
     11 C11       -32.9638   25.7189   67.5177 C.3       1 <0>         0.1450 
     12 C12       -28.5077   26.4388   59.9767 C.3       1 <0>        -0.1200 
     13 C13       -33.2235   25.0781   66.1335 C.3       1 <0>         0.0100 
     14 C14       -28.5098   24.7049   65.4770 C.3       1 <0>        -0.0600 
     15 C15       -29.3878   26.8249   61.1904 C.3       1 <0>        -0.0600 
     16 C16       -29.6834   24.8417   64.4622 C.3       1 <0>         0.1400 
     17 C17       -27.6965   27.6053   59.4076 C.2       1 <0>         0.5000 
     18 C18       -29.6283   25.6086   62.0927 C.2       1 <0>         0.5000 
     19 C19       -30.9384   25.4416   65.1531 C.2       1 <0>         0.5000 
     20 N1        -29.2903   25.7465   63.3826 N.am      1 <0>        -0.5000 
     21 N2        -27.8075   27.8252   58.0875 N.am      1 <0>        -0.2244 
     22 N3        -32.0086   24.6518   65.4136 N.am      1 <0>        -0.1400 
     23 O1        -34.1802   26.0938   68.1344 O.3       1 <0>        -0.6830 
     24 O2        -26.6092   28.2301   57.4561 O.3       1 <0>        -0.4375 
     25 O3        -26.9385   28.2410   60.1371 O.2       1 <0>        -0.5000 
     26 O4        -30.1523   24.5923   61.6329 O.2       1 <0>        -0.5000 
     27 O5        -30.9297   26.6369   65.4476 O.2       1 <0>        -0.5000 
     28 H1        -35.7103   28.4966   59.4612 H         1 <0>         0.0600 
     29 H2        -34.6097   29.8247   59.6978 H         1 <0>         0.0600 
     30 H3        -35.6029   29.2677   61.0451 H         1 <0>         0.0600 
     31 H4        -27.5087   26.6279   65.1356 H         1 <0>         0.0600 
     32 H5        -28.6288   26.6265   66.4981 H         1 <0>         0.0600 
     33 H6        -27.0756   25.8581   66.6468 H         1 <0>         0.0600 
     34 H7        -26.9504   24.2122   64.0272 H         1 <0>         0.0600 
     35 H8        -26.6125   23.6370   65.6554 H         1 <0>         0.0600 
     36 H9        -27.7995   22.8058   64.6568 H         1 <0>         0.0600 
     37 H10       -34.2544   23.2421   64.1779 H         1 <0>         0.0600 
     38 H11       -33.8238   21.8923   65.2233 H         1 <0>         0.0600 
     39 H12       -35.1535   24.0238   66.2529 H         1 <0>         0.0600 
     40 H13       -33.8441   23.2718   67.1623 H         1 <0>         0.0600 
     41 H14       -31.9716   23.2864   63.7737 H         1 <0>         0.0600 
     42 H15       -31.5448   22.6232   65.3531 H         1 <0>         0.0600 
     43 H16       -34.3397   27.0941   61.0568 H         1 <0>         0.0600 
     44 H17       -33.4131   27.6226   59.6723 H         1 <0>         0.0600 
     45 H18       -32.5097   29.5401   61.0534 H         1 <0>         0.0600 
     46 H19       -33.4140   28.9572   62.4223 H         1 <0>         0.0600 
     47 H20       -31.1774   28.2226   62.7264 H         1 <0>         0.0600 
     48 H21       -32.1013   26.8071   62.3163 H         1 <0>         0.0600 
     49 H22       -31.2093   26.8439   60.0071 H         1 <0>         0.0600 
     50 H23       -30.5032   28.4174   60.2540 H         1 <0>         0.0600 
     51 H24       -32.4308   25.0250   68.1704 H         1 <0>         0.0600 
     52 H25       -32.3567   26.6195   67.4414 H         1 <0>         0.0600 
     53 H26       -27.7877   25.6686   60.2595 H         1 <0>         0.0600 
     54 H27       -29.1288   25.9930   59.1998 H         1 <0>         0.0600 
     55 H28       -33.7336   25.7992   65.4930 H         1 <0>         0.0600 
     56 H29       -28.9063   24.2235   66.3698 H         1 <0>         0.0600 
     57 H30       -28.8512   27.5628   61.7923 H         1 <0>         0.0600 
     58 H31       -29.8789   23.8537   64.0538 H         1 <0>         0.0600 
     59 H32       -28.9056   26.6333   63.6739 H         1 <0>         0.3000 
     60 H33       -28.2853   27.1590   57.4909 H         1 <0>         0.3000 
     61 H34       -34.7391   25.3306   68.1861 H         1 <0>         0.4180 
     62 H35       -26.8962   28.5681   56.6174 H         1 <0>         0.3619 
@<TRIPOS>BOND
     1    1    7 1    
     2    1   28 1    
     3    1   29 1    
     4    1   30 1    
     5    2   14 1    
     6    2   31 1    
     7    2   32 1    
     8    2   33 1    
     9    3   14 1    
    10    3   34 1    
    11    3   35 1    
    12    3   36 1    
    13    4    5 1    
    14    4    6 1    
    15    4   37 1    
    16    4   38 1    
    17    5   13 1    
    18    5   39 1    
    19    5   40 1    
    20    6   22 1    
    21    6   41 1    
    22    6   42 1    
    23    7    8 1    
    24    7   43 1    
    25    7   44 1    
    26    8    9 1    
    27    8   45 1    
    28    8   46 1    
    29    9   10 1    
    30    9   47 1    
    31    9   48 1    
    32   10   15 1    
    33   10   49 1    
    34   10   50 1    
    35   11   13 1    
    36   11   23 1    
    37   11   51 1    
    38   11   52 1    
    39   12   15 1    
    40   12   17 1    
    41   12   53 1    
    42   12   54 1    
    43   13   22 1    
    44   13   55 1    
    45   14   16 1    
    46   14   56 1    
    47   15   18 1    
    48   15   57 1    
    49   16   19 1    
    50   16   20 1    
    51   16   58 1    
    52   17   21 am   BACKBONE|DICT|INTERRES
    53   17   25 2    
    54   18   20 am   BACKBONE|DICT|INTERRES
    55   18   26 2    
    56   19   22 am   BACKBONE|DICT|INTERRES
    57   19   27 2    
    58   20   59 1    
    59   21   24 1    
    60   21   60 1    
    61   23   61 1    
    62   24   62 1    
@<TRIPOS>SUBSTRUCTURE
     1 <0>         1 GROUP             0       ****    0 ROOT    
@<TRIPOS>MOLECULE
BB2_501_1LRU
62   62    1
SMALL
USER_CHARGES


@<TRIPOS>ATOM
      1 C1        -35.0204   28.9700   60.1450 C.3       1 <0>        -0.1800 
      2 C2        -27.9178   26.0127   65.8813 C.3       1 <0>        -0.1800 
      3 C3        -27.4983   23.7347   64.9067 C.3       1 <0>        -0.1800 
      4 C4        -33.7007   22.9274   65.1791 C.3       1 <0>        -0.1200 
      5 C5        -34.1057   23.8069   66.3485 C.3       1 <0>        -0.1200 
      6 C6        -32.2415   23.2966   64.9275 C.3       1 <0>        -0.0500 
      7 C7        -33.9066   28.0045   60.5571 C.3       1 <0>        -0.1200 
      8 C8        -32.8939   28.6640   61.5000 C.3       1 <0>        -0.1200 
      9 C9        -31.7213   27.7588   61.8956 C.3       1 <0>        -0.1200 
     10 C10       -30.7207   27.4914   60.7441 C.3       1 <0>        -0.1200 
     11 C11       -32.9713   25.7409   67.5656 C.3       1 <0>         0.1450 
     12 C12       -28.4523   26.5009   60.0168 C.3       1 <0>        -0.1200 
     13 C13       -33.2578   25.0770   66.1972 C.3       1 <0>         0.0100 
     14 C14       -28.5768   24.6881   65.4502 C.3       1 <0>        -0.0600 
     15 C15       -29.3789   26.8639   61.2016 C.3       1 <0>        -0.0600 
     16 C16       -29.7524   24.8439   64.4420 C.3       1 <0>         0.1400 
     17 C17       -27.7216   27.6969   59.3918 C.2       1 <0>         0.5000 
     18 C18       -29.6194   25.6278   62.0761 C.2       1 <0>         0.5000 
     19 C19       -31.0021   25.4436   65.1446 C.2       1 <0>         0.5000 
     20 N1        -29.3549   25.7702   63.3808 N.am      1 <0>        -0.5000 
     21 N2        -27.8093   27.8237   58.0609 N.am      1 <0>        -0.2244 
     22 N3        -32.0541   24.6492   65.4550 N.am      1 <0>        -0.1400 
     23 O1        -34.1768   26.1390   68.1917 O.3       1 <0>        -0.6830 
     24 O2        -26.6904   28.4261   57.4563 O.3       1 <0>        -0.4375 
     25 O3        -27.0096   28.4285   60.0816 O.2       1 <0>        -0.5000 
     26 O4        -30.0769   24.5958   61.5850 O.2       1 <0>        -0.5000 
     27 O5        -31.0059   26.6493   65.4035 O.2       1 <0>        -0.5000 
     28 H1        -35.7268   28.5042   59.4640 H         1 <0>         0.0600 
     29 H2        -34.6095   29.8232   59.6184 H         1 <0>         0.0600 
     30 H3        -35.5770   29.3292   61.0106 H         1 <0>         0.0600 
     31 H4        -27.4107   26.5044   65.0537 H         1 <0>         0.0600 
     32 H5        -28.6445   26.7135   66.2782 H         1 <0>         0.0600 
     33 H6        -27.1705   25.8476   66.6519 H         1 <0>         0.0600 
     34 H7        -27.0263   24.1401   64.0091 H         1 <0>         0.0600 
     35 H8        -26.7160   23.5619   65.6473 H         1 <0>         0.0600 
     36 H9        -27.9202   22.7607   64.6523 H         1 <0>         0.0600 
     37 H10       -34.3023   23.1834   64.3070 H         1 <0>         0.0600 
     38 H11       -33.8400   21.8624   65.3740 H         1 <0>         0.0600 
     39 H12       -35.1765   24.0193   66.3639 H         1 <0>         0.0600 
     40 H13       -33.8538   23.2960   67.2793 H         1 <0>         0.0600 
     41 H14       -32.0310   23.2254   63.8606 H         1 <0>         0.0600 
     42 H15       -31.5672   22.6266   65.4529 H         1 <0>         0.0600 
     43 H16       -34.3419   27.1365   61.0527 H         1 <0>         0.0600 
     44 H17       -33.4092   27.6363   59.6587 H         1 <0>         0.0600 
     45 H18       -32.4972   29.5715   61.0531 H         1 <0>         0.0600 
     46 H19       -33.4152   28.9804   62.4030 H         1 <0>         0.0600 
     47 H20       -31.1863   28.2260   62.7238 H         1 <0>         0.0600 
     48 H21       -32.1159   26.8221   62.2930 H         1 <0>         0.0600 
     49 H22       -31.1900   26.8497   59.9971 H         1 <0>         0.0600 
     50 H23       -30.5039   28.4366   60.2411 H         1 <0>         0.0600 
     51 H24       -32.4374   25.0515   68.2241 H         1 <0>         0.0600 
     52 H25       -32.3581   26.6343   67.4529 H         1 <0>         0.0600 
     53 H26       -27.6765   25.8109   60.3490 H         1 <0>         0.0600 
     54 H27       -29.0211   25.9639   59.2564 H         1 <0>         0.0600 
     55 H28       -33.7901   25.7850   65.5587 H         1 <0>         0.0600 
     56 H29       -28.9776   24.2249   66.3552 H         1 <0>         0.0600 
     57 H30       -28.8692   27.6032   61.8230 H         1 <0>         0.0600 
     58 H31       -29.9587   23.8649   64.0178 H         1 <0>         0.0600 
     59 H32       -29.0248   26.6701   63.6933 H         1 <0>         0.3000 
     60 H33       -28.2047   27.1169   57.4507 H         1 <0>         0.3000 
     61 H34       -34.7489   25.3894   68.2560 H         1 <0>         0.4180 
     62 H35       -26.1485   28.6391   58.2038 H         1 <0>         0.3619 
@<TRIPOS>BOND
     1    1    7 1    
     2    1   28 1    
     3    1   29 1    
     4    1   30 1    
     5    2   14 1    
     6    2   31 1    
     7    2   32 1    
     8    2   33 1    
     9    3   14 1    
    10    3   34 1    
    11    3   35 1    
    12    3   36 1    
    13    4    5 1    
    14    4    6 1    
    15    4   37 1    
    16    4   38 1    
    17    5   13 1    
    18    5   39 1    
    19    5   40 1    
    20    6   22 1    
    21    6   41 1    
    22    6   42 1    
    23    7    8 1    
    24    7   43 1    
    25    7   44 1    
    26    8    9 1    
    27    8   45 1    
    28    8   46 1    
    29    9   10 1    
    30    9   47 1    
    31    9   48 1    
    32   10   15 1    
    33   10   49 1    
    34   10   50 1    
    35   11   13 1    
    36   11   23 1    
    37   11   51 1    
    38   11   52 1    
    39   12   15 1    
    40   12   17 1    
    41   12   53 1    
    42   12   54 1    
    43   13   22 1    
    44   13   55 1    
    45   14   16 1    
    46   14   56 1    
    47   15   18 1    
    48   15   57 1    
    49   16   19 1    
    50   16   20 1    
    51   16   58 1    
    52   17   21 am   BACKBONE|DICT|INTERRES
    53   17   25 2    
    54   18   20 am   BACKBONE|DICT|INTERRES
    55   18   26 2    
    56   19   22 am   BACKBONE|DICT|INTERRES
    57   19   27 2    
    58   20   59 1    
    59   21   24 1    
    60   21   60 1    
    61   23   61 1    
    62   24   62 1    
@<TRIPOS>SUBSTRUCTURE
     1 <0>         1 GROUP             0       ****    0 ROOT    
@<TRIPOS>MOLECULE
BB2_501_1LRU
62   62    1
SMALL
USER_CHARGES


@<TRIPOS>ATOM
      1 C1        -35.0608   28.9453   60.2028 C.3       1 <0>        -0.1800 
      2 C2        -27.8611   26.0197   65.9674 C.3       1 <0>        -0.1800 
      3 C3        -27.3871   23.7584   64.9557 C.3       1 <0>        -0.1800 
      4 C4        -33.6482   22.9502   65.0627 C.3       1 <0>        -0.1200 
      5 C5        -34.0513   23.7865   66.2645 C.3       1 <0>        -0.1200 
      6 C6        -32.1862   23.3198   64.8341 C.3       1 <0>        -0.0500 
      7 C7        -33.9669   27.9656   60.6299 C.3       1 <0>        -0.1200 
      8 C8        -32.9770   28.6277   61.5963 C.3       1 <0>        -0.1200 
      9 C9        -31.7840   27.7456   61.9811 C.3       1 <0>        -0.1200 
     10 C10       -30.7921   27.4998   60.8204 C.3       1 <0>        -0.1200 
     11 C11       -32.9251   25.7032   67.5359 C.3       1 <0>         0.1450 
     12 C12       -28.5727   26.4748   60.0313 C.3       1 <0>        -0.1200 
     13 C13       -33.2004   25.0627   66.1522 C.3       1 <0>         0.0100 
     14 C14       -28.4840   24.6911   65.4996 C.3       1 <0>        -0.0600 
     15 C15       -29.4516   26.8507   61.2463 C.3       1 <0>        -0.0600 
     16 C16       -29.6580   24.8216   64.4845 C.3       1 <0>         0.1400 
     17 C17       -27.7534   27.6408   59.4720 C.2       1 <0>         0.5000 
     18 C18       -29.6842   25.6206   62.1353 C.2       1 <0>         0.5000 
     19 C19       -30.9114   25.4301   65.1723 C.2       1 <0>         0.5000 
     20 N1        -29.2678   25.7222   63.4027 N.am      1 <0>        -0.5000 
     21 N2        -27.7970   27.8236   58.1472 N.am      1 <0>        -0.2244 
     22 N3        -31.9865   24.6455   65.4218 N.am      1 <0>        -0.1400 
     23 O1        -34.1341   26.0459   68.1834 O.3       1 <0>        -0.6830 
     24 O2        -26.6139   28.3633   57.6076 O.3       1 <0>        -0.4375 
     25 O3        -27.0078   28.2901   60.2065 O.2       1 <0>        -0.5000 
     26 O4        -30.2641   24.6309   61.6848 O.2       1 <0>        -0.5000 
     27 O5        -30.8986   26.6240   65.4641 O.2       1 <0>        -0.5000 
     28 H1        -35.7256   28.5114   59.4584 H         1 <0>         0.0600 
     29 H2        -34.6100   29.8247   59.7455 H         1 <0>         0.0600 
     30 H3        -35.6614   29.2699   61.0532 H         1 <0>         0.0600 
     31 H4        -27.4644   26.6106   65.1451 H         1 <0>         0.0600 
     32 H5        -28.5874   26.6233   66.5054 H         1 <0>         0.0600 
     33 H6        -27.0381   25.8397   66.6521 H         1 <0>         0.0600 
     34 H7        -26.9111   24.1719   64.0654 H         1 <0>         0.0600 
     35 H8        -26.6095   23.5873   65.7008 H         1 <0>         0.0600 
     36 H9        -27.7997   22.7828   64.6890 H         1 <0>         0.0600 
     37 H10       -34.2399   23.2489   64.1950 H         1 <0>         0.0600 
     38 H11       -33.7966   21.8805   65.2118 H         1 <0>         0.0600 
     39 H12       -35.1215   23.9931   66.2893 H         1 <0>         0.0600 
     40 H13       -33.7937   23.2442   67.1757 H         1 <0>         0.0600 
     41 H14       -31.9636   23.3030   63.7662 H         1 <0>         0.0600 
     42 H15       -31.5156   22.6213   65.3295 H         1 <0>         0.0600 
     43 H16       -34.4156   27.0892   61.0996 H         1 <0>         0.0600 
     44 H17       -33.4450   27.6147   59.7397 H         1 <0>         0.0600 
     45 H18       -32.6073   29.5517   61.1582 H         1 <0>         0.0600 
     46 H19       -33.5100   28.9156   62.5023 H         1 <0>         0.0600 
     47 H20       -31.2511   28.2224   62.8047 H         1 <0>         0.0600 
     48 H21       -32.1592   26.8006   62.3770 H         1 <0>         0.0600 
     49 H22       -31.2717   26.8798   60.0591 H         1 <0>         0.0600 
     50 H23       -30.5727   28.4525   60.3380 H         1 <0>         0.0600 
     51 H24       -32.3569   25.0239   68.1738 H         1 <0>         0.0600 
     52 H25       -32.3431   26.6204   67.4501 H         1 <0>         0.0600 
     53 H26       -27.8587   25.6951   60.3026 H         1 <0>         0.0600 
     54 H27       -29.1969   26.0439   59.2468 H         1 <0>         0.0600 
     55 H28       -33.7251   25.7813   65.5198 H         1 <0>         0.0600 
     56 H29       -28.8829   24.2195   66.3984 H         1 <0>         0.0600 
     57 H30       -28.9191   27.5848   61.8545 H         1 <0>         0.0600 
     58 H31       -29.8548   23.8315   64.0798 H         1 <0>         0.0600 
     59 H32       -28.8173   26.5794   63.6856 H         1 <0>         0.3000 
     60 H33       -28.2097   27.1604   57.4990 H         1 <0>         0.3000 
     61 H34       -34.6700   25.2670   68.2492 H         1 <0>         0.4180 
     62 H35       -26.0912   28.5200   58.3846 H         1 <0>         0.3619 
@<TRIPOS>BOND
     1    1    7 1    
     2    1   28 1    
     3    1   29 1    
     4    1   30 1    
     5    2   14 1    
     6    2   31 1    
     7    2   32 1    
     8    2   33 1    
     9    3   14 1    
    10    3   34 1    
    11    3   35 1    
    12    3   36 1    
    13    4    5 1    
    14    4    6 1    
    15    4   37 1    
    16    4   38 1    
    17    5   13 1    
    18    5   39 1    
    19    5   40 1    
    20    6   22 1    
    21    6   41 1    
    22    6   42 1    
    23    7    8 1    
    24    7   43 1    
    25    7   44 1    
    26    8    9 1    
    27    8   45 1    
    28    8   46 1    
    29    9   10 1    
    30    9   47 1    
    31    9   48 1    
    32   10   15 1    
    33   10   49 1    
    34   10   50 1    
    35   11   13 1    
    36   11   23 1    
    37   11   51 1    
    38   11   52 1    
    39   12   15 1    
    40   12   17 1    
    41   12   53 1    
    42   12   54 1    
    43   13   22 1    
    44   13   55 1    
    45   14   16 1    
    46   14   56 1    
    47   15   18 1    
    48   15   57 1    
    49   16   19 1    
    50   16   20 1    
    51   16   58 1    
    52   17   21 am   BACKBONE|DICT|INTERRES
    53   17   25 2    
    54   18   20 am   BACKBONE|DICT|INTERRES
    55   18   26 2    
    56   19   22 am   BACKBONE|DICT|INTERRES
    57   19   27 2    
    58   20   59 1    
    59   21   24 1    
    60   21   60 1    
    61   23   61 1    
    62   24   62 1    
@<TRIPOS>SUBSTRUCTURE
     1 <0>         1 GROUP             0       ****    0 ROOT    
@<TRIPOS>MOLECULE
BB2_501_1LRU
62   62    1
SMALL
USER_CHARGES


@<TRIPOS>ATOM
      1 C1        -35.0380   28.9711   60.1416 C.3       1 <0>        -0.1800 
      2 C2        -27.9083   26.0270   65.9415 C.3       1 <0>        -0.1800 
      3 C3        -27.4068   23.7753   64.9178 C.3       1 <0>        -0.1800 
      4 C4        -33.6917   22.9253   64.9965 C.3       1 <0>        -0.1200 
      5 C5        -34.0817   23.7399   66.2163 C.3       1 <0>        -0.1200 
      6 C6        -32.2335   23.3098   64.7398 C.3       1 <0>        -0.0500 
      7 C7        -33.9453   27.9867   60.5714 C.3       1 <0>        -0.1200 
      8 C8        -32.9277   28.6448   61.5141 C.3       1 <0>        -0.1200 
      9 C9        -31.7496   27.7405   61.9106 C.3       1 <0>        -0.1200 
     10 C10       -30.7606   27.4621   60.7537 C.3       1 <0>        -0.1200 
     11 C11       -32.9844   25.6633   67.5018 C.3       1 <0>         0.1450 
     12 C12       -28.5347   26.4395   59.9794 C.3       1 <0>        -0.1200 
     13 C13       -33.2372   25.0162   66.1144 C.3       1 <0>         0.0100 
     14 C14       -28.5147   24.6949   65.4666 C.3       1 <0>        -0.0600 
     15 C15       -29.4207   26.8180   61.1907 C.3       1 <0>        -0.0600 
     16 C16       -29.6891   24.8116   64.4489 C.3       1 <0>         0.1400 
     17 C17       -27.7036   27.5983   59.4169 C.2       1 <0>         0.5000 
     18 C18       -29.6609   25.5952   62.0851 C.2       1 <0>         0.5000 
     19 C19       -30.9475   25.4023   65.1440 C.2       1 <0>         0.5000 
     20 N1        -29.3021   25.7194   63.3701 N.am      1 <0>        -0.5000 
     21 N2        -27.8090   27.8236   58.0985 N.am      1 <0>        -0.2244 
     22 N3        -32.0215   24.6099   65.3805 N.am      1 <0>        -0.1400 
     23 O1        -34.2051   26.0710   68.0924 O.3       1 <0>        -0.6830 
     24 O2        -26.6101   28.2242   57.4657 O.3       1 <0>        -0.4375 
     25 O3        -26.9351   28.2170   60.1516 O.2       1 <0>        -0.5000 
     26 O4        -30.2017   24.5863   61.6271 O.2       1 <0>        -0.5000 
     27 O5        -30.9425   26.5934   65.4514 O.2       1 <0>        -0.5000 
     28 H1        -35.7468   28.5123   59.4545 H         1 <0>         0.0600 
     29 H2        -34.6097   29.8251   59.6205 H         1 <0>         0.0600 
     30 H3        -35.5953   29.3420   61.0017 H         1 <0>         0.0600 
     31 H4        -27.5140   26.6194   65.1182 H         1 <0>         0.0600 
     32 H5        -28.6437   26.6234   66.4709 H         1 <0>         0.0600 
     33 H6        -27.0924   25.8602   66.6419 H         1 <0>         0.0600 
     34 H7        -26.9435   24.1998   64.0257 H         1 <0>         0.0600 
     35 H8        -26.6154   23.6199   65.6555 H         1 <0>         0.0600 
     36 H9        -27.8026   22.7946   64.6530 H         1 <0>         0.0600 
     37 H10       -34.3068   23.2196   64.1421 H         1 <0>         0.0600 
     38 H11       -33.8234   21.8509   65.1405 H         1 <0>         0.0600 
     39 H12       -35.1510   23.9420   66.2560 H         1 <0>         0.0600 
     40 H13       -33.8138   23.1812   67.1115 H         1 <0>         0.0600 
     41 H14       -32.0494   23.3521   63.6661 H         1 <0>         0.0600 
     42 H15       -31.5531   22.5746   65.1626 H         1 <0>         0.0600 
     43 H16       -34.4012   27.1307   61.0743 H         1 <0>         0.0600 
     44 H17       -33.4495   27.5987   59.6833 H         1 <0>         0.0600 
     45 H18       -32.5301   29.5474   61.0550 H         1 <0>         0.0600 
     46 H19       -33.4438   28.9683   62.4185 H         1 <0>         0.0600 
     47 H20       -31.2075   28.2221   62.7288 H         1 <0>         0.0600 
     48 H21       -32.1397   26.8090   62.3238 H         1 <0>         0.0600 
     49 H22       -31.2492   26.8261   60.0142 H         1 <0>         0.0600 
     50 H23       -30.5412   28.4001   60.2452 H         1 <0>         0.0600 
     51 H24       -32.4832   24.9661   68.1727 H         1 <0>         0.0600 
     52 H25       -32.3516   26.5472   67.4361 H         1 <0>         0.0600 
     53 H26       -27.8234   25.6589   60.2580 H         1 <0>         0.0600 
     54 H27       -29.1553   26.0048   59.1962 H         1 <0>         0.0600 
     55 H28       -33.7568   25.7379   65.4774 H         1 <0>         0.0600 
     56 H29       -28.9084   24.2166   66.3648 H         1 <0>         0.0600 
     57 H30       -28.8896   27.5565   61.7961 H         1 <0>         0.0600 
     58 H31       -29.8770   23.8199   64.0428 H         1 <0>         0.0600 
     59 H32       -28.8935   26.5959   63.6602 H         1 <0>         0.3000 
     60 H33       -28.2952   27.1656   57.4974 H         1 <0>         0.3000 
     61 H34       -34.7818   25.3228   68.1325 H         1 <0>         0.4180 
     62 H35       -26.9004   28.5758   56.6322 H         1 <0>         0.3619 
@<TRIPOS>BOND
     1    1    7 1    
     2    1   28 1    
     3    1   29 1    
     4    1   30 1    
     5    2   14 1    
     6    2   31 1    
     7    2   32 1    
     8    2   33 1    
     9    3   14 1    
    10    3   34 1    
    11    3   35 1    
    12    3   36 1    
    13    4    5 1    
    14    4    6 1    
    15    4   37 1    
    16    4   38 1    
    17    5   13 1    
    18    5   39 1    
    19    5   40 1    
    20    6   22 1    
    21    6   41 1    
    22    6   42 1    
    23    7    8 1    
    24    7   43 1    
    25    7   44 1    
    26    8    9 1    
    27    8   45 1    
    28    8   46 1    
    29    9   10 1    
    30    9   47 1    
    31    9   48 1    
    32   10   15 1    
    33   10   49 1    
    34   10   50 1    
    35   11   13 1    
    36   11   23 1    
    37   11   51 1    
    38   11   52 1    
    39   12   15 1    
    40   12   17 1    
    41   12   53 1    
    42   12   54 1    
    43   13   22 1    
    44   13   55 1    
    45   14   16 1    
    46   14   56 1    
    47   15   18 1    
    48   15   57 1    
    49   16   19 1    
    50   16   20 1    
    51   16   58 1    
    52   17   21 am   BACKBONE|DICT|INTERRES
    53   17   25 2    
    54   18   20 am   BACKBONE|DICT|INTERRES
    55   18   26 2    
    56   19   22 am   BACKBONE|DICT|INTERRES
    57   19   27 2    
    58   20   59 1    
    59   21   24 1    
    60   21   60 1    
    61   23   61 1    
    62   24   62 1    
@<TRIPOS>SUBSTRUCTURE
     1 <0>         1 GROUP             0       ****    0 ROOT    
@<TRIPOS>MOLECULE
BB2_501_1LRU
62   62    1
SMALL
USER_CHARGES


@<TRIPOS>ATOM
      1 C1        -34.5997   25.4007   62.5513 C.3       1 <0>        -0.1800 
      2 C2        -27.3075   24.9306   64.4324 C.3       1 <0>        -0.1800 
      3 C3        -28.5679   24.9051   66.5940 C.3       1 <0>        -0.1800 
      4 C4        -33.4353   23.0597   65.2473 C.3       1 <0>        -0.1200 
      5 C5        -33.8994   23.8912   66.4296 C.3       1 <0>        -0.1200 
      6 C6        -32.0527   23.6173   64.9309 C.3       1 <0>        -0.0500 
      7 C7        -33.8412   26.7342   62.4902 C.3       1 <0>        -0.1200 
      8 C8        -33.0303   26.8874   61.1958 C.3       1 <0>        -0.1200 
      9 C9        -32.0145   28.0460   61.2303 C.3       1 <0>        -0.1200 
     10 C10       -30.8115   27.8073   60.2889 C.3       1 <0>        -0.1200 
     11 C11       -33.0072   25.9925   67.5721 C.3       1 <0>         0.1450 
     12 C12       -28.5270   26.7023   59.8804 C.3       1 <0>        -0.1200 
     13 C13       -33.2369   25.2626   66.2271 C.3       1 <0>         0.0100 
     14 C14       -28.4875   25.5517   65.2005 C.3       1 <0>        -0.0600 
     15 C15       -29.5340   27.2125   60.9399 C.3       1 <0>        -0.0600 
     16 C16       -29.7894   25.4531   64.3550 C.3       1 <0>         0.1400 
     17 C17       -27.5479   27.7381   59.3258 C.2       1 <0>         0.5000 
     18 C18       -29.8192   26.0808   61.9391 C.2       1 <0>         0.5000 
     19 C19       -31.0510   25.8952   65.1359 C.2       1 <0>         0.5000 
     20 N1        -29.6331   26.3717   63.2310 N.am      1 <0>        -0.5000 
     21 N2        -27.1676   27.5341   58.0629 N.am      1 <0>        -0.2244 
     22 N3        -32.0092   24.9870   65.4519 N.am      1 <0>        -0.1400 
     23 O1        -34.2277   26.1965   68.2530 O.3       1 <0>        -0.6830 
     24 O2        -25.8092   27.8234   57.8529 O.3       1 <0>        -0.4375 
     25 O3        -27.0406   28.6058   60.0403 O.2       1 <0>        -0.5000 
     26 O4        -30.1790   24.9750   61.5398 O.2       1 <0>        -0.5000 
     27 O5        -31.1400   27.0822   65.4512 O.2       1 <0>        -0.5000 
     28 H1        -35.0091   25.2318   63.5465 H         1 <0>         0.0600 
     29 H2        -33.9427   24.5598   62.3265 H         1 <0>         0.0600 
     30 H3        -35.4334   25.3723   61.8531 H         1 <0>         0.0600 
     31 H4        -27.4707   23.8671   64.2532 H         1 <0>         0.0600 
     32 H5        -27.1503   25.4018   63.4641 H         1 <0>         0.0600 
     33 H6        -26.3827   25.0205   64.9959 H         1 <0>         0.0600 
     34 H7        -28.6862   23.8238   66.5283 H         1 <0>         0.0600 
     35 H8        -27.6590   25.0989   67.1643 H         1 <0>         0.0600 
     36 H9        -29.3964   25.3073   67.1717 H         1 <0>         0.0600 
     37 H10       -34.1004   23.2081   64.3956 H         1 <0>         0.0600 
     38 H11       -33.4152   21.9892   65.4564 H         1 <0>         0.0600 
     39 H12       -34.9847   23.9580   66.4884 H         1 <0>         0.0600 
     40 H13       -33.5404   23.4306   67.3521 H         1 <0>         0.0600 
     41 H14       -31.8746   23.5719   63.8552 H         1 <0>         0.0600 
     42 H15       -31.2929   23.0276   65.4369 H         1 <0>         0.0600 
     43 H16       -34.5430   27.5623   62.6012 H         1 <0>         0.0600 
     44 H17       -33.1701   26.7867   63.3443 H         1 <0>         0.0600 
     45 H18       -32.5071   25.9502   61.0150 H         1 <0>         0.0600 
     46 H19       -33.7008   27.0189   60.3460 H         1 <0>         0.0600 
     47 H20       -32.5274   28.9643   60.9413 H         1 <0>         0.0600 
     48 H21       -31.6540   28.2251   62.2435 H         1 <0>         0.0600 
     49 H22       -31.1257   27.1759   59.4586 H         1 <0>         0.0600 
     50 H23       -30.5367   28.7642   59.8458 H         1 <0>         0.0600 
     51 H24       -32.3348   25.4221   68.2122 H         1 <0>         0.0600 
     52 H25       -32.5619   26.9764   67.4352 H         1 <0>         0.0600 
     53 H26       -27.9006   25.9116   60.2935 H         1 <0>         0.0600 
     54 H27       -29.0669   26.2385   59.0545 H         1 <0>         0.0600 
     55 H28       -33.8823   25.8758   65.5960 H         1 <0>         0.0600 
     56 H29       -28.2648   26.6095   65.3592 H         1 <0>         0.0600 
     57 H30       -29.0674   28.0148   61.5134 H         1 <0>         0.0600 
     58 H31       -29.8666   24.4272   63.9978 H         1 <0>         0.0600 
     59 H32       -29.3870   27.3194   63.4713 H         1 <0>         0.3000 
     60 H33       -27.4451   26.7241   57.5199 H         1 <0>         0.3000 
     61 H34       -34.6476   25.3559   68.3661 H         1 <0>         0.4180 
     62 H35       -25.5638   28.2263   58.6750 H         1 <0>         0.3619 
@<TRIPOS>BOND
     1    1    7 1    
     2    1   28 1    
     3    1   29 1    
     4    1   30 1    
     5    2   14 1    
     6    2   31 1    
     7    2   32 1    
     8    2   33 1    
     9    3   14 1    
    10    3   34 1    
    11    3   35 1    
    12    3   36 1    
    13    4    5 1    
    14    4    6 1    
    15    4   37 1    
    16    4   38 1    
    17    5   13 1    
    18    5   39 1    
    19    5   40 1    
    20    6   22 1    
    21    6   41 1    
    22    6   42 1    
    23    7    8 1    
    24    7   43 1    
    25    7   44 1    
    26    8    9 1    
    27    8   45 1    
    28    8   46 1    
    29    9   10 1    
    30    9   47 1    
    31    9   48 1    
    32   10   15 1    
    33   10   49 1    
    34   10   50 1    
    35   11   13 1    
    36   11   23 1    
    37   11   51 1    
    38   11   52 1    
    39   12   15 1    
    40   12   17 1    
    41   12   53 1    
    42   12   54 1    
    43   13   22 1    
    44   13   55 1    
    45   14   16 1    
    46   14   56 1    
    47   15   18 1    
    48   15   57 1    
    49   16   19 1    
    50   16   20 1    
    51   16   58 1    
    52   17   21 am   BACKBONE|DICT|INTERRES
    53   17   25 2    
    54   18   20 am   BACKBONE|DICT|INTERRES
    55   18   26 2    
    56   19   22 am   BACKBONE|DICT|INTERRES
    57   19   27 2    
    58   20   59 1    
    59   21   24 1    
    60   21   60 1    
    61   23   61 1    
    62   24   62 1    
@<TRIPOS>SUBSTRUCTURE
     1 <0>         1 GROUP             0       ****    0 ROOT    
@<TRIPOS>MOLECULE
BB2_501_1LRU
62   62    1
SMALL
USER_CHARGES


@<TRIPOS>ATOM
      1 C1        -34.9929   28.9489   60.1305 C.3       1 <0>        -0.1800 
      2 C2        -28.1716   25.9668   66.1569 C.3       1 <0>        -0.1800 
      3 C3        -27.3201   23.8466   65.0658 C.3       1 <0>        -0.1800 
      4 C4        -33.3889   22.2758   64.0943 C.3       1 <0>        -0.1200 
      5 C5        -34.1017   22.8634   65.3081 C.3       1 <0>        -0.1200 
      6 C6        -31.9698   22.8431   64.1798 C.3       1 <0>        -0.0500 
      7 C7        -33.8519   28.0322   60.5850 C.3       1 <0>        -0.1200 
      8 C8        -32.8777   28.7339   61.5420 C.3       1 <0>        -0.1200 
      9 C9        -31.7222   27.8219   61.9777 C.3       1 <0>        -0.1200 
     10 C10       -30.6608   27.6478   60.8748 C.3       1 <0>        -0.1200 
     11 C11       -33.3613   24.5905   67.0005 C.3       1 <0>         0.1450 
     12 C12       -28.5376   26.4688   60.1041 C.3       1 <0>        -0.1200 
     13 C13       -33.4257   24.2199   65.5216 C.3       1 <0>         0.0100 
     14 C14       -28.5657   24.5999   65.5632 C.3       1 <0>        -0.0600 
     15 C15       -29.3941   26.8845   61.3262 C.3       1 <0>        -0.0600 
     16 C16       -29.6840   24.6900   64.4843 C.3       1 <0>         0.1400 
     17 C17       -27.7051   27.6177   59.5199 C.2       1 <0>         0.5000 
     18 C18       -29.7573   25.6507   62.1695 C.2       1 <0>         0.5000 
     19 C19       -31.0803   25.0113   65.0586 C.2       1 <0>         0.5000 
     20 N1        -29.3376   25.6582   63.4423 N.am      1 <0>        -0.5000 
     21 N2        -27.8029   27.8179   58.1984 N.am      1 <0>        -0.2244 
     22 N3        -32.0962   24.0857   64.9331 N.am      1 <0>        -0.1400 
     23 O1        -34.6383   24.8887   67.5293 O.3       1 <0>        -0.6830 
     24 O2        -26.7136   28.4997   57.6157 O.3       1 <0>        -0.4375 
     25 O3        -26.9538   28.2702   60.2461 O.2       1 <0>        -0.5000 
     26 O4        -30.3842   24.7182   61.6672 O.2       1 <0>        -0.5000 
     27 O5        -31.2507   26.0886   65.6344 O.2       1 <0>        -0.5000 
     28 H1        -35.6667   28.4239   59.4532 H         1 <0>         0.0600 
     29 H2        -34.6098   29.8244   59.6056 H         1 <0>         0.0600 
     30 H3        -35.5808   29.2973   60.9802 H         1 <0>         0.0600 
     31 H4        -27.7273   26.6200   65.4057 H         1 <0>         0.0600 
     32 H5        -29.0326   26.4840   66.5805 H         1 <0>         0.0600 
     33 H6        -27.4412   25.8472   66.9575 H         1 <0>         0.0600 
     34 H7        -26.8033   24.3958   64.2797 H         1 <0>         0.0600 
     35 H8        -26.6076   23.6906   65.8762 H         1 <0>         0.0600 
     36 H9        -27.5840   22.8661   64.6686 H         1 <0>         0.0600 
     37 H10       -33.8700   22.6285   63.1820 H         1 <0>         0.0600 
     38 H11       -33.4082   21.1861   64.0778 H         1 <0>         0.0600 
     39 H12       -35.1796   22.9458   65.1680 H         1 <0>         0.0600 
     40 H13       -33.9291   22.2276   66.1765 H         1 <0>         0.0600 
     41 H14       -31.5420   23.0052   63.1904 H         1 <0>         0.0600 
     42 H15       -31.3141   22.1627   64.7230 H         1 <0>         0.0600 
     43 H16       -34.2717   27.1506   61.0709 H         1 <0>         0.0600 
     44 H17       -33.3101   27.6729   59.7092 H         1 <0>         0.0600 
     45 H18       -32.4737   29.6246   61.0591 H         1 <0>         0.0600 
     46 H19       -33.4205   29.0793   62.4229 H         1 <0>         0.0600 
     47 H20       -31.2521   28.2354   62.8708 H         1 <0>         0.0600 
     48 H21       -32.1275   26.8508   62.2645 H         1 <0>         0.0600 
     49 H22       -31.1082   27.1481   60.0140 H         1 <0>         0.0600 
     50 H23       -30.3668   28.6374   60.5230 H         1 <0>         0.0600 
     51 H24       -32.9080   23.7956   67.5927 H         1 <0>         0.0600 
     52 H25       -32.7278   25.4685   67.1299 H         1 <0>         0.0600 
     53 H26       -27.8906   25.6285   60.3625 H         1 <0>         0.0600 
     54 H27       -29.1887   26.1115   59.3059 H         1 <0>         0.0600 
     55 H28       -33.9669   25.0093   64.9999 H         1 <0>         0.0600 
     56 H29       -28.9607   24.0090   66.3904 H         1 <0>         0.0600 
     57 H30       -28.8078   27.5693   61.9423 H         1 <0>         0.0600 
     58 H31       -29.7602   23.7172   63.9987 H         1 <0>         0.0600 
     59 H32       -28.7186   26.4034   63.7287 H         1 <0>         0.3000 
     60 H33       -28.2514   27.2106   57.5272 H         1 <0>         0.3000 
     61 H34       -34.5770   24.9066   68.4724 H         1 <0>         0.4180 
     62 H35       -27.0235   28.6820   56.7395 H         1 <0>         0.3619 
@<TRIPOS>BOND
     1    1    7 1    
     2    1   28 1    
     3    1   29 1    
     4    1   30 1    
     5    2   14 1    
     6    2   31 1    
     7    2   32 1    
     8    2   33 1    
     9    3   14 1    
    10    3   34 1    
    11    3   35 1    
    12    3   36 1    
    13    4    5 1    
    14    4    6 1    
    15    4   37 1    
    16    4   38 1    
    17    5   13 1    
    18    5   39 1    
    19    5   40 1    
    20    6   22 1    
    21    6   41 1    
    22    6   42 1    
    23    7    8 1    
    24    7   43 1    
    25    7   44 1    
    26    8    9 1    
    27    8   45 1    
    28    8   46 1    
    29    9   10 1    
    30    9   47 1    
    31    9   48 1    
    32   10   15 1    
    33   10   49 1    
    34   10   50 1    
    35   11   13 1    
    36   11   23 1    
    37   11   51 1    
    38   11   52 1    
    39   12   15 1    
    40   12   17 1    
    41   12   53 1    
    42   12   54 1    
    43   13   22 1    
    44   13   55 1    
    45   14   16 1    
    46   14   56 1    
    47   15   18 1    
    48   15   57 1    
    49   16   19 1    
    50   16   20 1    
    51   16   58 1    
    52   17   21 am   BACKBONE|DICT|INTERRES
    53   17   25 2    
    54   18   20 am   BACKBONE|DICT|INTERRES
    55   18   26 2    
    56   19   22 am   BACKBONE|DICT|INTERRES
    57   19   27 2    
    58   20   59 1    
    59   21   24 1    
    60   21   60 1    
    61   23   61 1    
    62   24   62 1    
@<TRIPOS>SUBSTRUCTURE
     1 <0>         1 GROUP             0       ****    0 ROOT    
@<TRIPOS>MOLECULE
BB2_501_1LRU
62   62    1
SMALL
USER_CHARGES


@<TRIPOS>ATOM
      1 C1        -34.9468   28.8480   60.1474 C.3       1 <0>        -0.1800 
      2 C2        -28.1651   25.9256   66.2287 C.3       1 <0>        -0.1800 
      3 C3        -27.3168   23.7956   65.1544 C.3       1 <0>        -0.1800 
      4 C4        -33.3947   22.2524   64.2775 C.3       1 <0>        -0.1200 
      5 C5        -34.0503   22.8527   65.5171 C.3       1 <0>        -0.1200 
      6 C6        -31.9774   22.8304   64.2837 C.3       1 <0>        -0.0500 
      7 C7        -33.7528   27.9782   60.5557 C.3       1 <0>        -0.1200 
      8 C8        -32.8102   28.6931   61.5344 C.3       1 <0>        -0.1200 
      9 C9        -31.6523   27.7971   61.9960 C.3       1 <0>        -0.1200 
     10 C10       -30.5816   27.6088   60.9045 C.3       1 <0>        -0.1200 
     11 C11       -33.2389   24.6092   67.1456 C.3       1 <0>         0.1450 
     12 C12       -28.4617   26.4074   60.1597 C.3       1 <0>        -0.1200 
     13 C13       -33.3745   24.2167   65.6772 C.3       1 <0>         0.0100 
     14 C14       -28.5628   24.5613   65.6317 C.3       1 <0>        -0.0600 
     15 C15       -29.3266   26.8356   61.3715 C.3       1 <0>        -0.0600 
     16 C16       -29.6639   24.6595   64.5359 C.3       1 <0>         0.1400 
     17 C17       -27.6465   27.5566   59.5521 C.2       1 <0>         0.5000 
     18 C18       -29.7097   25.6082   62.2156 C.2       1 <0>         0.5000 
     19 C19       -31.0612   25.0170   65.0861 C.2       1 <0>         0.5000 
     20 N1        -29.2832   25.6060   63.4860 N.am      1 <0>        -0.5000 
     21 N2        -27.7885   27.7623   58.2355 N.am      1 <0>        -0.2244 
     22 N3        -32.0751   24.0828   65.0248 N.am      1 <0>        -0.1400 
     23 O1        -34.4898   24.9085   67.7329 O.3       1 <0>        -0.6830 
     24 O2        -26.6999   28.4074   57.6112 O.3       1 <0>        -0.4375 
     25 O3        -26.8694   28.2044   60.2549 O.2       1 <0>        -0.5000 
     26 O4        -30.3577   24.6890   61.7157 O.2       1 <0>        -0.5000 
     27 O5        -31.2340   26.1313   65.5856 O.2       1 <0>        -0.5000 
     28 H1        -35.5967   28.3145   59.4535 H         1 <0>         0.0600 
     29 H2        -34.6174   29.7642   59.6567 H         1 <0>         0.0600 
     30 H3        -35.5453   29.1280   61.0148 H         1 <0>         0.0600 
     31 H4        -27.7036   26.5733   65.4830 H         1 <0>         0.0600 
     32 H5        -29.0276   26.4516   66.6383 H         1 <0>         0.0600 
     33 H6        -27.4479   25.8010   67.0404 H         1 <0>         0.0600 
     34 H7        -26.7833   24.3384   64.3752 H         1 <0>         0.0600 
     35 H8        -26.6181   23.6347   65.9757 H         1 <0>         0.0600 
     36 H9        -27.5838   22.8167   64.7552 H         1 <0>         0.0600 
     37 H10       -33.9234   22.5886   63.3856 H         1 <0>         0.0600 
     38 H11       -33.4067   21.1625   64.2774 H         1 <0>         0.0600 
     39 H12       -35.1343   22.9259   65.4300 H         1 <0>         0.0600 
     40 H13       -33.8297   22.2308   66.3846 H         1 <0>         0.0600 
     41 H14       -31.6008   22.9810   63.2719 H         1 <0>         0.0600 
     42 H15       -31.2902   22.1623   64.8030 H         1 <0>         0.0600 
     43 H16       -34.1188   27.0554   61.0074 H         1 <0>         0.0600 
     44 H17       -33.1999   27.6858   59.6621 H         1 <0>         0.0600 
     45 H18       -32.4078   29.5895   61.0607 H         1 <0>         0.0600 
     46 H19       -33.3774   29.0307   62.4028 H         1 <0>         0.0600 
     47 H20       -31.1914   28.2307   62.8845 H         1 <0>         0.0600 
     48 H21       -32.0535   26.8291   62.2984 H         1 <0>         0.0600 
     49 H22       -31.0249   27.1099   60.0411 H         1 <0>         0.0600 
     50 H23       -30.2748   28.5942   60.5518 H         1 <0>         0.0600 
     51 H24       -32.7523   23.8252   67.7259 H         1 <0>         0.0600 
     52 H25       -32.6049   25.4921   67.2308 H         1 <0>         0.0600 
     53 H26       -27.8018   25.5833   60.4369 H         1 <0>         0.0600 
     54 H27       -29.1057   26.0228   59.3685 H         1 <0>         0.0600 
     55 H28       -33.9469   24.9947   65.1721 H         1 <0>         0.0600 
     56 H29       -28.9755   23.9757   66.4539 H         1 <0>         0.0600 
     57 H30       -28.7403   27.5171   61.9911 H         1 <0>         0.0600 
     58 H31       -29.7534   23.6818   64.0623 H         1 <0>         0.0600 
     59 H32       -28.6322   26.3265   63.7646 H         1 <0>         0.3000 
     60 H33       -28.2832   27.1719   57.5819 H         1 <0>         0.3000 
     61 H34       -34.3629   25.0426   68.6599 H         1 <0>         0.4180 
     62 H35       -27.0458   28.6253   56.7569 H         1 <0>         0.3619 
@<TRIPOS>BOND
     1    1    7 1    
     2    1   28 1    
     3    1   29 1    
     4    1   30 1    
     5    2   14 1    
     6    2   31 1    
     7    2   32 1    
     8    2   33 1    
     9    3   14 1    
    10    3   34 1    
    11    3   35 1    
    12    3   36 1    
    13    4    5 1    
    14    4    6 1    
    15    4   37 1    
    16    4   38 1    
    17    5   13 1    
    18    5   39 1    
    19    5   40 1    
    20    6   22 1    
    21    6   41 1    
    22    6   42 1    
    23    7    8 1    
    24    7   43 1    
    25    7   44 1    
    26    8    9 1    
    27    8   45 1    
    28    8   46 1    
    29    9   10 1    
    30    9   47 1    
    31    9   48 1    
    32   10   15 1    
    33   10   49 1    
    34   10   50 1    
    35   11   13 1    
    36   11   23 1    
    37   11   51 1    
    38   11   52 1    
    39   12   15 1    
    40   12   17 1    
    41   12   53 1    
    42   12   54 1    
    43   13   22 1    
    44   13   55 1    
    45   14   16 1    
    46   14   56 1    
    47   15   18 1    
    48   15   57 1    
    49   16   19 1    
    50   16   20 1    
    51   16   58 1    
    52   17   21 am   BACKBONE|DICT|INTERRES
    53   17   25 2    
    54   18   20 am   BACKBONE|DICT|INTERRES
    55   18   26 2    
    56   19   22 am   BACKBONE|DICT|INTERRES
    57   19   27 2    
    58   20   59 1    
    59   21   24 1    
    60   21   60 1    
    61   23   61 1    
    62   24   62 1    
@<TRIPOS>SUBSTRUCTURE
     1 <0>         1 GROUP             0       ****    0 ROOT    
@<TRIPOS>MOLECULE
BB2_501_1LRU
62   62    1
SMALL
USER_CHARGES


@<TRIPOS>ATOM
      1 C1        -35.0351   28.9435   60.1735 C.3       1 <0>        -0.1800 
      2 C2        -27.9854   26.0334   65.9192 C.3       1 <0>        -0.1800 
      3 C3        -27.3972   23.7884   64.9310 C.3       1 <0>        -0.1800 
      4 C4        -33.6466   22.7345   64.8303 C.3       1 <0>        -0.1200 
      5 C5        -34.0870   23.5117   66.0604 C.3       1 <0>        -0.1200 
      6 C6        -32.1916   23.1503   64.6249 C.3       1 <0>        -0.0500 
      7 C7        -33.9222   27.9730   60.5751 C.3       1 <0>        -0.1200 
      8 C8        -32.9108   28.6404   61.5168 C.3       1 <0>        -0.1200 
      9 C9        -31.7278   27.7483   61.9110 C.3       1 <0>        -0.1200 
     10 C10       -30.7363   27.4835   60.7521 C.3       1 <0>        -0.1200 
     11 C11       -33.0157   25.3793   67.4506 C.3       1 <0>         0.1450 
     12 C12       -28.5238   26.4367   59.9649 C.3       1 <0>        -0.1200 
     13 C13       -33.2551   24.8029   66.0309 C.3       1 <0>         0.0100 
     14 C14       -28.5414   24.6787   65.4429 C.3       1 <0>        -0.0600 
     15 C15       -29.4064   26.8165   61.1783 C.3       1 <0>        -0.0600 
     16 C16       -29.6975   24.7588   64.3992 C.3       1 <0>         0.1400 
     17 C17       -27.6946   27.5975   59.4045 C.2       1 <0>         0.5000 
     18 C18       -29.6601   25.5812   62.0510 C.2       1 <0>         0.5000 
     19 C19       -30.9930   25.2910   65.0679 C.2       1 <0>         0.5000 
     20 N1        -29.3180   25.6896   63.3410 N.am      1 <0>        -0.5000 
     21 N2        -27.8079   27.8238   58.0880 N.am      1 <0>        -0.2244 
     22 N3        -32.0287   24.4468   65.2929 N.am      1 <0>        -0.1400 
     23 O1        -34.2189   25.8788   67.9992 O.3       1 <0>        -0.6830 
     24 O2        -26.6133   28.2235   57.4534 O.3       1 <0>        -0.4375 
     25 O3        -26.9179   28.2093   60.1342 O.2       1 <0>        -0.5000 
     26 O4        -30.1913   24.5801   61.5727 O.2       1 <0>        -0.5000 
     27 O5        -31.0470   26.4807   65.3767 O.2       1 <0>        -0.5000 
     28 H1        -35.7166   28.5019   59.4540 H         1 <0>         0.0600 
     29 H2        -34.6096   29.8235   59.6976 H         1 <0>         0.0600 
     30 H3        -35.6141   29.2715   61.0383 H         1 <0>         0.0600 
     31 H4        -27.5687   26.6233   65.1039 H         1 <0>         0.0600 
     32 H5        -28.7565   26.6237   66.4071 H         1 <0>         0.0600 
     33 H6        -27.1954   25.8930   66.6504 H         1 <0>         0.0600 
     34 H7        -26.9195   24.2195   64.0514 H         1 <0>         0.0600 
     35 H8        -26.6304   23.6564   65.6960 H         1 <0>         0.0600 
     36 H9        -27.7584   22.7967   64.6582 H         1 <0>         0.0600 
     37 H10       -34.2448   23.0391   63.9708 H         1 <0>         0.0600 
     38 H11       -33.7633   21.6560   64.9441 H         1 <0>         0.0600 
     39 H12       -35.1623   23.7021   66.0681 H         1 <0>         0.0600 
     40 H13       -33.8452   22.9277   66.9513 H         1 <0>         0.0600 
     41 H14       -31.9761   23.2190   63.5545 H         1 <0>         0.0600 
     42 H15       -31.5056   22.4172   65.0517 H         1 <0>         0.0600 
     43 H16       -34.3568   27.0968   61.0586 H         1 <0>         0.0600 
     44 H17       -33.4213   27.6154   59.6756 H         1 <0>         0.0600 
     45 H18       -32.5253   29.5458   61.0558 H         1 <0>         0.0600 
     46 H19       -33.4276   28.9562   62.4242 H         1 <0>         0.0600 
     47 H20       -31.1891   28.2235   62.7326 H         1 <0>         0.0600 
     48 H21       -32.1151   26.8090   62.3111 H         1 <0>         0.0600 
     49 H22       -31.2256   26.8697   59.9962 H         1 <0>         0.0600 
     50 H23       -30.5040   28.4317   60.2668 H         1 <0>         0.0600 
     51 H24       -32.6083   24.6234   68.1186 H         1 <0>         0.0600 
     52 H25       -32.3099   26.2086   67.4507 H         1 <0>         0.0600 
     53 H26       -27.8116   25.6544   60.2386 H         1 <0>         0.0600 
     54 H27       -29.1467   26.0073   59.1805 H         1 <0>         0.0600 
     55 H28       -33.7767   25.5470   65.4262 H         1 <0>         0.0600 
     56 H29       -28.9430   24.1968   66.3349 H         1 <0>         0.0600 
     57 H30       -28.8615   27.5366   61.7946 H         1 <0>         0.0600 
     58 H31       -29.8385   23.7670   63.9796 H         1 <0>         0.0600 
     59 H32       -28.9238   26.5665   63.6492 H         1 <0>         0.3000 
     60 H33       -28.2971   27.1656   57.4901 H         1 <0>         0.3000 
     61 H34       -34.8482   25.1722   68.0312 H         1 <0>         0.4180 
     62 H35       -26.9035   28.5678   56.6179 H         1 <0>         0.3619 
@<TRIPOS>BOND
     1    1    7 1    
     2    1   28 1    
     3    1   29 1    
     4    1   30 1    
     5    2   14 1    
     6    2   31 1    
     7    2   32 1    
     8    2   33 1    
     9    3   14 1    
    10    3   34 1    
    11    3   35 1    
    12    3   36 1    
    13    4    5 1    
    14    4    6 1    
    15    4   37 1    
    16    4   38 1    
    17    5   13 1    
    18    5   39 1    
    19    5   40 1    
    20    6   22 1    
    21    6   41 1    
    22    6   42 1    
    23    7    8 1    
    24    7   43 1    
    25    7   44 1    
    26    8    9 1    
    27    8   45 1    
    28    8   46 1    
    29    9   10 1    
    30    9   47 1    
    31    9   48 1    
    32   10   15 1    
    33   10   49 1    
    34   10   50 1    
    35   11   13 1    
    36   11   23 1    
    37   11   51 1    
    38   11   52 1    
    39   12   15 1    
    40   12   17 1    
    41   12   53 1    
    42   12   54 1    
    43   13   22 1    
    44   13   55 1    
    45   14   16 1    
    46   14   56 1    
    47   15   18 1    
    48   15   57 1    
    49   16   19 1    
    50   16   20 1    
    51   16   58 1    
    52   17   21 am   BACKBONE|DICT|INTERRES
    53   17   25 2    
    54   18   20 am   BACKBONE|DICT|INTERRES
    55   18   26 2    
    56   19   22 am   BACKBONE|DICT|INTERRES
    57   19   27 2    
    58   20   59 1    
    59   21   24 1    
    60   21   60 1    
    61   23   61 1    
    62   24   62 1    
@<TRIPOS>SUBSTRUCTURE
     1 <0>         1 GROUP             0       ****    0 ROOT    
@<TRIPOS>MOLECULE
BB2_501_1LRU
62   62    1
SMALL
USER_CHARGES


@<TRIPOS>ATOM
      1 C1        -35.0422   28.9523   60.1687 C.3       1 <0>        -0.1800 
      2 C2        -27.8899   26.0029   65.8899 C.3       1 <0>        -0.1800 
      3 C3        -27.3877   23.7233   64.9370 C.3       1 <0>        -0.1800 
      4 C4        -33.6785   22.8657   64.8715 C.3       1 <0>        -0.1200 
      5 C5        -34.0843   23.6577   66.1026 C.3       1 <0>        -0.1200 
      6 C6        -32.2164   23.2453   64.6469 C.3       1 <0>        -0.0500 
      7 C7        -33.9466   27.9636   60.5739 C.3       1 <0>        -0.1200 
      8 C8        -32.9331   28.6250   61.5123 C.3       1 <0>        -0.1200 
      9 C9        -31.7441   27.7371   61.9052 C.3       1 <0>        -0.1200 
     10 C10       -30.7570   27.4601   60.7460 C.3       1 <0>        -0.1200 
     11 C11       -32.9873   25.5312   67.4589 C.3       1 <0>         0.1450 
     12 C12       -28.5358   26.4326   59.9581 C.3       1 <0>        -0.1200 
     13 C13       -33.2282   24.9310   66.0488 C.3       1 <0>         0.0100 
     14 C14       -28.4989   24.6602   65.4476 C.3       1 <0>        -0.0600 
     15 C15       -29.4180   26.8051   61.1750 C.3       1 <0>        -0.0600 
     16 C16       -29.6634   24.7642   64.4176 C.3       1 <0>         0.1400 
     17 C17       -27.7082   27.5944   59.3985 C.2       1 <0>         0.5000 
     18 C18       -29.6593   25.5735   62.0621 C.2       1 <0>         0.5000 
     19 C19       -30.9347   25.3353   65.1020 C.2       1 <0>         0.5000 
     20 N1        -29.2792   25.6793   63.3415 N.am      1 <0>        -0.5000 
     21 N2        -27.8094   27.8238   58.0807 N.am      1 <0>        -0.2244 
     22 N3        -32.0061   24.5345   65.3216 N.am      1 <0>        -0.1400 
     23 O1        -34.2078   25.9424   68.0412 O.3       1 <0>        -0.6830 
     24 O2        -26.6091   28.2237   57.4539 O.3       1 <0>        -0.4375 
     25 O3        -26.9401   28.2139   60.1368 O.2       1 <0>        -0.5000 
     26 O4        -30.2143   24.5781   61.5982 O.2       1 <0>        -0.5000 
     27 O5        -30.9379   26.5221   65.4310 O.2       1 <0>        -0.5000 
     28 H1        -35.7400   28.5164   59.4588 H         1 <0>         0.0600 
     29 H2        -34.6097   29.8239   59.6850 H         1 <0>         0.0600 
     30 H3        -35.6117   29.2907   61.0342 H         1 <0>         0.0600 
     31 H4        -27.4813   26.5692   65.0567 H         1 <0>         0.0600 
     32 H5        -28.6267   26.6229   66.3913 H         1 <0>         0.0600 
     33 H6        -27.0828   25.8534   66.6050 H         1 <0>         0.0600 
     34 H7        -26.9151   24.1221   64.0379 H         1 <0>         0.0600 
     35 H8        -26.6099   23.5793   65.6848 H         1 <0>         0.0600 
     36 H9        -27.7886   22.7389   64.6861 H         1 <0>         0.0600 
     37 H10       -34.2765   23.1839   64.0178 H         1 <0>         0.0600 
     38 H11       -33.8222   21.7905   64.9909 H         1 <0>         0.0600 
     39 H12       -35.1529   23.8682   66.1269 H         1 <0>         0.0600 
     40 H13       -33.8380   23.0782   66.9934 H         1 <0>         0.0600 
     41 H14       -32.0156   23.3200   63.5778 H         1 <0>         0.0600 
     42 H15       -31.5464   22.4910   65.0536 H         1 <0>         0.0600 
     43 H16       -34.3887   27.0972   61.0640 H         1 <0>         0.0600 
     44 H17       -33.4487   27.5960   59.6776 H         1 <0>         0.0600 
     45 H18       -32.5668   29.5362   61.0534 H         1 <0>         0.0600 
     46 H19       -33.4469   28.9401   62.4205 H         1 <0>         0.0600 
     47 H20       -31.2038   28.2219   62.7180 H         1 <0>         0.0600 
     48 H21       -32.1258   26.8024   62.3183 H         1 <0>         0.0600 
     49 H22       -31.2469   26.8341   59.9969 H         1 <0>         0.0600 
     50 H23       -30.5335   28.4043   60.2466 H         1 <0>         0.0600 
     51 H24       -32.5130   24.8027   68.1130 H         1 <0>         0.0600 
     52 H25       -32.3400   26.4055   67.4359 H         1 <0>         0.0600 
     53 H26       -27.8240   25.6531   60.2310 H         1 <0>         0.0600 
     54 H27       -29.1565   26.0020   59.1728 H         1 <0>         0.0600 
     55 H28       -33.7347   25.6735   65.4259 H         1 <0>         0.0600 
     56 H29       -28.8992   24.2074   66.3538 H         1 <0>         0.0600 
     57 H30       -28.8847   27.5341   61.7882 H         1 <0>         0.0600 
     58 H31       -29.8411   23.7725   64.0111 H         1 <0>         0.0600 
     59 H32       -28.8490   26.5421   63.6355 H         1 <0>         0.3000 
     60 H33       -28.2911   27.1611   57.4781 H         1 <0>         0.3000 
     61 H34       -34.7824   25.1928   68.0849 H         1 <0>         0.4180 
     62 H35       -26.8924   28.5661   56.6163 H         1 <0>         0.3619 
@<TRIPOS>BOND
     1    1    7 1    
     2    1   28 1    
     3    1   29 1    
     4    1   30 1    
     5    2   14 1    
     6    2   31 1    
     7    2   32 1    
     8    2   33 1    
     9    3   14 1    
    10    3   34 1    
    11    3   35 1    
    12    3   36 1    
    13    4    5 1    
    14    4    6 1    
    15    4   37 1    
    16    4   38 1    
    17    5   13 1    
    18    5   39 1    
    19    5   40 1    
    20    6   22 1    
    21    6   41 1    
    22    6   42 1    
    23    7    8 1    
    24    7   43 1    
    25    7   44 1    
    26    8    9 1    
    27    8   45 1    
    28    8   46 1    
    29    9   10 1    
    30    9   47 1    
    31    9   48 1    
    32   10   15 1    
    33   10   49 1    
    34   10   50 1    
    35   11   13 1    
    36   11   23 1    
    37   11   51 1    
    38   11   52 1    
    39   12   15 1    
    40   12   17 1    
    41   12   53 1    
    42   12   54 1    
    43   13   22 1    
    44   13   55 1    
    45   14   16 1    
    46   14   56 1    
    47   15   18 1    
    48   15   57 1    
    49   16   19 1    
    50   16   20 1    
    51   16   58 1    
    52   17   21 am   BACKBONE|DICT|INTERRES
    53   17   25 2    
    54   18   20 am   BACKBONE|DICT|INTERRES
    55   18   26 2    
    56   19   22 am   BACKBONE|DICT|INTERRES
    57   19   27 2    
    58   20   59 1    
    59   21   24 1    
    60   21   60 1    
    61   23   61 1    
    62   24   62 1    
@<TRIPOS>SUBSTRUCTURE
     1 <0>         1 GROUP             0       ****    0 ROOT    
@<TRIPOS>MOLECULE
BB2_501_1LRU
62   62    1
SMALL
USER_CHARGES


@<TRIPOS>ATOM
      1 C1        -35.0335   28.8893   60.2430 C.3       1 <0>        -0.1800 
      2 C2        -27.8559   25.9986   65.8967 C.3       1 <0>        -0.1800 
      3 C3        -27.3674   23.7098   64.9701 C.3       1 <0>        -0.1800 
      4 C4        -33.6460   22.8237   64.7908 C.3       1 <0>        -0.1200 
      5 C5        -34.0895   23.6004   66.0200 C.3       1 <0>        -0.1200 
      6 C6        -32.1743   23.1991   64.6231 C.3       1 <0>        -0.0500 
      7 C7        -33.8880   27.9399   60.6064 C.3       1 <0>        -0.1200 
      8 C8        -32.9039   28.6095   61.5743 C.3       1 <0>        -0.1200 
      9 C9        -31.6969   27.7395   61.9516 C.3       1 <0>        -0.1200 
     10 C10       -30.7144   27.4738   60.7876 C.3       1 <0>        -0.1200 
     11 C11       -32.9993   25.4206   67.4476 C.3       1 <0>         0.1450 
     12 C12       -28.5099   26.4328   59.9776 C.3       1 <0>        -0.1200 
     13 C13       -33.2208   24.8666   66.0165 C.3       1 <0>         0.0100 
     14 C14       -28.4726   24.6563   65.4667 C.3       1 <0>        -0.0600 
     15 C15       -29.3772   26.8081   61.2029 C.3       1 <0>        -0.0600 
     16 C16       -29.6346   24.7475   64.4320 C.3       1 <0>         0.1400 
     17 C17       -27.6910   27.5986   59.4106 C.2       1 <0>         0.5000 
     18 C18       -29.6192   25.5712   62.0809 C.2       1 <0>         0.5000 
     19 C19       -30.9163   25.2963   65.1132 C.2       1 <0>         0.5000 
     20 N1        -29.2599   25.6772   63.3684 N.am      1 <0>        -0.5000 
     21 N2        -27.8087   27.8243   58.0957 N.am      1 <0>        -0.2244 
     22 N3        -31.9827   24.4833   65.3077 N.am      1 <0>        -0.1400 
     23 O1        -34.2099   25.9149   67.9835 O.3       1 <0>        -0.6830 
     24 O2        -26.6119   28.2242   57.4544 O.3       1 <0>        -0.4375 
     25 O3        -26.9164   28.2216   60.1383 O.2       1 <0>        -0.5000 
     26 O4        -30.1474   24.5651   61.6041 O.2       1 <0>        -0.5000 
     27 O5        -30.9338   26.4809   65.4560 O.2       1 <0>        -0.5000 
     28 H1        -35.6774   28.4638   59.4757 H         1 <0>         0.0600 
     29 H2        -34.6461   29.8249   59.8419 H         1 <0>         0.0600 
     30 H3        -35.6499   29.1195   61.1126 H         1 <0>         0.0600 
     31 H4        -27.4566   26.5620   65.0551 H         1 <0>         0.0600 
     32 H5        -28.5882   26.6229   66.4000 H         1 <0>         0.0600 
     33 H6        -27.0365   25.8526   66.5940 H         1 <0>         0.0600 
     34 H7        -26.8660   24.1098   64.0859 H         1 <0>         0.0600 
     35 H8        -26.6094   23.5515   65.7362 H         1 <0>         0.0600 
     36 H9        -27.7707   22.7299   64.7070 H         1 <0>         0.0600 
     37 H10       -34.2104   23.1602   63.9191 H         1 <0>         0.0600 
     38 H11       -33.7990   21.7474   64.8896 H         1 <0>         0.0600 
     39 H12       -35.1576   23.8175   66.0074 H         1 <0>         0.0600 
     40 H13       -33.8823   23.0037   66.9089 H         1 <0>         0.0600 
     41 H14       -31.9400   23.2688   63.5591 H         1 <0>         0.0600 
     42 H15       -31.5224   22.4380   65.0535 H         1 <0>         0.0600 
     43 H16       -34.2804   27.0246   61.0535 H         1 <0>         0.0600 
     44 H17       -33.3741   27.6455   59.6940 H         1 <0>         0.0600 
     45 H18       -32.5661   29.5456   61.1358 H         1 <0>         0.0600 
     46 H19       -33.4364   28.8790   62.4878 H         1 <0>         0.0600 
     47 H20       -31.1547   28.2235   62.7634 H         1 <0>         0.0600 
     48 H21       -32.0646   26.7980   62.3619 H         1 <0>         0.0600 
     49 H22       -31.2093   26.8515   60.0384 H         1 <0>         0.0600 
     50 H23       -30.4883   28.4174   60.2892 H         1 <0>         0.0600 
     51 H24       -32.6085   24.6453   68.1084 H         1 <0>         0.0600 
     52 H25       -32.2910   26.2467   67.4655 H         1 <0>         0.0600 
     53 H26       -27.7896   25.6560   60.2443 H         1 <0>         0.0600 
     54 H27       -29.1446   26.0016   59.2012 H         1 <0>         0.0600 
     55 H28       -33.7066   25.6311   65.4069 H         1 <0>         0.0600 
     56 H29       -28.8772   24.2067   66.3721 H         1 <0>         0.0600 
     57 H30       -28.8337   27.5296   61.8146 H         1 <0>         0.0600 
     58 H31       -29.7967   23.7551   64.0140 H         1 <0>         0.0600 
     59 H32       -28.8560   26.5524   63.6708 H         1 <0>         0.3000 
     60 H33       -28.2965   27.1608   57.4980 H         1 <0>         0.3000 
     61 H34       -34.8508   25.2212   67.9488 H         1 <0>         0.4180 
     62 H35       -26.9024   28.5688   56.6195 H         1 <0>         0.3619 
@<TRIPOS>BOND
     1    1    7 1    
     2    1   28 1    
     3    1   29 1    
     4    1   30 1    
     5    2   14 1    
     6    2   31 1    
     7    2   32 1    
     8    2   33 1    
     9    3   14 1    
    10    3   34 1    
    11    3   35 1    
    12    3   36 1    
    13    4    5 1    
    14    4    6 1    
    15    4   37 1    
    16    4   38 1    
    17    5   13 1    
    18    5   39 1    
    19    5   40 1    
    20    6   22 1    
    21    6   41 1    
    22    6   42 1    
    23    7    8 1    
    24    7   43 1    
    25    7   44 1    
    26    8    9 1    
    27    8   45 1    
    28    8   46 1    
    29    9   10 1    
    30    9   47 1    
    31    9   48 1    
    32   10   15 1    
    33   10   49 1    
    34   10   50 1    
    35   11   13 1    
    36   11   23 1    
    37   11   51 1    
    38   11   52 1    
    39   12   15 1    
    40   12   17 1    
    41   12   53 1    
    42   12   54 1    
    43   13   22 1    
    44   13   55 1    
    45   14   16 1    
    46   14   56 1    
    47   15   18 1    
    48   15   57 1    
    49   16   19 1    
    50   16   20 1    
    51   16   58 1    
    52   17   21 am   BACKBONE|DICT|INTERRES
    53   17   25 2    
    54   18   20 am   BACKBONE|DICT|INTERRES
    55   18   26 2    
    56   19   22 am   BACKBONE|DICT|INTERRES
    57   19   27 2    
    58   20   59 1    
    59   21   24 1    
    60   21   60 1    
    61   23   61 1    
    62   24   62 1    
@<TRIPOS>SUBSTRUCTURE
     1 <0>         1 GROUP             0       ****    0 ROOT    
@<TRIPOS>MOLECULE
BB2_501_1LRU
62   62    1
SMALL
USER_CHARGES


@<TRIPOS>ATOM
      1 C1        -34.9758   28.8816   60.2151 C.3       1 <0>        -0.1800 
      2 C2        -28.1098   26.0297   66.2312 C.3       1 <0>        -0.1800 
      3 C3        -27.4664   23.8307   65.1881 C.3       1 <0>        -0.1800 
      4 C4        -33.7010   22.8892   65.1984 C.3       1 <0>        -0.1200 
      5 C5        -34.1219   23.7666   66.3648 C.3       1 <0>        -0.1200 
      6 C6        -32.2488   23.2869   64.9407 C.3       1 <0>        -0.0500 
      7 C7        -33.8170   27.9489   60.5820 C.3       1 <0>        -0.1200 
      8 C8        -32.8175   28.6262   61.5272 C.3       1 <0>        -0.1200 
      9 C9        -31.6477   27.7358   61.9623 C.3       1 <0>        -0.1200 
     10 C10       -30.6175   27.4568   60.8429 C.3       1 <0>        -0.1200 
     11 C11       -33.0094   25.7281   67.5683 C.3       1 <0>         0.1450 
     12 C12       -28.3616   26.4126   60.1673 C.3       1 <0>        -0.1200 
     13 C13       -33.2952   25.0519   66.2045 C.3       1 <0>         0.0100 
     14 C14       -28.6410   24.7015   65.6725 C.3       1 <0>        -0.0600 
     15 C15       -29.2946   26.8121   61.3348 C.3       1 <0>        -0.0600 
     16 C16       -29.7386   24.8310   64.5765 C.3       1 <0>         0.1400 
     17 C17       -27.6038   27.5928   59.5549 C.2       1 <0>         0.5000 
     18 C18       -29.5711   25.5941   62.2222 C.2       1 <0>         0.5000 
     19 C19       -31.0328   25.4402   65.1806 C.2       1 <0>         0.5000 
     20 N1        -29.2686   25.7244   63.5207 N.am      1 <0>        -0.5000 
     21 N2        -27.8093   27.8235   58.2490 N.am      1 <0>        -0.2244 
     22 N3        -32.0818   24.6372   65.4754 N.am      1 <0>        -0.1400 
     23 O1        -34.2097   26.1293   68.2008 O.3       1 <0>        -0.6830 
     24 O2        -26.6618   28.2466   57.5402 O.3       1 <0>        -0.4375 
     25 O3        -26.7989   28.2230   60.2407 O.2       1 <0>        -0.5000 
     26 O4        -30.0940   24.5865   61.7448 O.2       1 <0>        -0.5000 
     27 O5        -31.0729   26.6540   65.3864 O.2       1 <0>        -0.5000 
     28 H1        -35.6115   28.4384   59.4532 H         1 <0>         0.0600 
     29 H2        -34.6093   29.8232   59.8113 H         1 <0>         0.0600 
     30 H3        -35.5972   29.1075   61.0822 H         1 <0>         0.0600 
     31 H4        -27.6014   26.6226   65.4704 H         1 <0>         0.0600 
     32 H5        -28.9139   26.6235   66.6526 H         1 <0>         0.0600 
     33 H6        -27.4094   25.8539   67.0435 H         1 <0>         0.0600 
     34 H7        -26.9237   24.3102   64.3723 H         1 <0>         0.0600 
     35 H8        -26.7576   23.6441   65.9944 H         1 <0>         0.0600 
     36 H9        -27.8090   22.8592   64.8311 H         1 <0>         0.0600 
     37 H10       -34.3057   23.1301   64.3219 H         1 <0>         0.0600 
     38 H11       -33.8201   21.8239   65.4012 H         1 <0>         0.0600 
     39 H12       -35.1967   23.9568   66.3760 H         1 <0>         0.0600 
     40 H13       -33.8630   23.2613   67.2976 H         1 <0>         0.0600 
     41 H14       -32.0380   23.2391   63.8711 H         1 <0>         0.0600 
     42 H15       -31.5547   22.6238   65.4504 H         1 <0>         0.0600 
     43 H16       -34.2095   27.0457   61.0517 H         1 <0>         0.0600 
     44 H17       -33.3103   27.6341   59.6695 H         1 <0>         0.0600 
     45 H18       -32.4185   29.5190   61.0532 H         1 <0>         0.0600 
     46 H19       -33.3491   28.9630   62.4178 H         1 <0>         0.0600 
     47 H20       -31.1369   28.2231   62.7925 H         1 <0>         0.0600 
     48 H21       -32.0451   26.8028   62.3652 H         1 <0>         0.0600 
     49 H22       -31.0762   26.8239   60.0820 H         1 <0>         0.0600 
     50 H23       -30.3772   28.3986   60.3463 H         1 <0>         0.0600 
     51 H24       -32.4651   25.0499   68.2281 H         1 <0>         0.0600 
     52 H25       -32.3998   26.6234   67.4534 H         1 <0>         0.0600 
     53 H26       -27.6034   25.7080   60.5155 H         1 <0>         0.0600 
     54 H27       -28.9298   25.8828   59.4030 H         1 <0>         0.0600 
     55 H28       -33.8350   25.7474   65.5577 H         1 <0>         0.0600 
     56 H29       -29.0930   24.1913   66.5223 H         1 <0>         0.0600 
     57 H30       -28.7812   27.5514   61.9531 H         1 <0>         0.0600 
     58 H31       -29.9142   23.8400   64.1626 H         1 <0>         0.0600 
     59 H32       -28.8702   26.5982   63.8296 H         1 <0>         0.3000 
     60 H33       -28.3219   27.1579   57.6796 H         1 <0>         0.3000 
     61 H34       -34.7758   25.3744   68.2700 H         1 <0>         0.4180 
     62 H35       -27.0079   28.5854   56.7252 H         1 <0>         0.3619 
@<TRIPOS>BOND
     1    1    7 1    
     2    1   28 1    
     3    1   29 1    
     4    1   30 1    
     5    2   14 1    
     6    2   31 1    
     7    2   32 1    
     8    2   33 1    
     9    3   14 1    
    10    3   34 1    
    11    3   35 1    
    12    3   36 1    
    13    4    5 1    
    14    4    6 1    
    15    4   37 1    
    16    4   38 1    
    17    5   13 1    
    18    5   39 1    
    19    5   40 1    
    20    6   22 1    
    21    6   41 1    
    22    6   42 1    
    23    7    8 1    
    24    7   43 1    
    25    7   44 1    
    26    8    9 1    
    27    8   45 1    
    28    8   46 1    
    29    9   10 1    
    30    9   47 1    
    31    9   48 1    
    32   10   15 1    
    33   10   49 1    
    34   10   50 1    
    35   11   13 1    
    36   11   23 1    
    37   11   51 1    
    38   11   52 1    
    39   12   15 1    
    40   12   17 1    
    41   12   53 1    
    42   12   54 1    
    43   13   22 1    
    44   13   55 1    
    45   14   16 1    
    46   14   56 1    
    47   15   18 1    
    48   15   57 1    
    49   16   19 1    
    50   16   20 1    
    51   16   58 1    
    52   17   21 am   BACKBONE|DICT|INTERRES
    53   17   25 2    
    54   18   20 am   BACKBONE|DICT|INTERRES
    55   18   26 2    
    56   19   22 am   BACKBONE|DICT|INTERRES
    57   19   27 2    
    58   20   59 1    
    59   21   24 1    
    60   21   60 1    
    61   23   61 1    
    62   24   62 1    
@<TRIPOS>SUBSTRUCTURE
     1 <0>         1 GROUP             0       ****    0 ROOT    
@<TRIPOS>MOLECULE
BB2_501_1LRU
62   62    1
SMALL
USER_CHARGES


@<TRIPOS>ATOM
      1 C1        -35.0531   28.9683   60.1470 C.3       1 <0>        -0.1800 
      2 C2        -27.9667   26.0340   65.9376 C.3       1 <0>        -0.1800 
      3 C3        -27.3927   23.7910   64.9385 C.3       1 <0>        -0.1800 
      4 C4        -33.6759   22.8194   64.8229 C.3       1 <0>        -0.1200 
      5 C5        -34.1105   23.5998   66.0519 C.3       1 <0>        -0.1200 
      6 C6        -32.2105   23.2070   64.6292 C.3       1 <0>        -0.0500 
      7 C7        -33.9639   27.9716   60.5611 C.3       1 <0>        -0.1200 
      8 C8        -32.9525   28.6282   61.5075 C.3       1 <0>        -0.1200 
      9 C9        -31.7622   27.7388   61.8938 C.3       1 <0>        -0.1200 
     10 C10       -30.7731   27.4653   60.7358 C.3       1 <0>        -0.1200 
     11 C11       -33.0079   25.4342   67.4575 C.3       1 <0>         0.1450 
     12 C12       -28.5363   26.4418   59.9680 C.3       1 <0>        -0.1200 
     13 C13       -33.2516   24.8721   66.0335 C.3       1 <0>         0.0100 
     14 C14       -28.5338   24.6850   65.4561 C.3       1 <0>        -0.0600 
     15 C15       -29.4314   26.8213   61.1745 C.3       1 <0>        -0.0600 
     16 C16       -29.6876   24.7785   64.4124 C.3       1 <0>         0.1400 
     17 C17       -27.7035   27.5993   59.4073 C.2       1 <0>         0.5000 
     18 C18       -29.6655   25.5935   62.0648 C.2       1 <0>         0.5000 
     19 C19       -30.9753   25.3254   65.0829 C.2       1 <0>         0.5000 
     20 N1        -29.3076   25.7079   63.3505 N.am      1 <0>        -0.5000 
     21 N2        -27.8087   27.8235   58.0915 N.am      1 <0>        -0.2244 
     22 N3        -32.0245   24.4969   65.3054 N.am      1 <0>        -0.1400 
     23 O1        -34.2098   25.9346   68.0059 O.3       1 <0>        -0.6830 
     24 O2        -26.6107   28.2238   57.4581 O.3       1 <0>        -0.4375 
     25 O3        -26.9307   28.2154   60.1410 O.2       1 <0>        -0.5000 
     26 O4        -30.1955   24.5840   61.5968 O.2       1 <0>        -0.5000 
     27 O5        -31.0144   26.5166   65.3971 O.2       1 <0>        -0.5000 
     28 H1        -35.7661   28.5296   59.4544 H         1 <0>         0.0600 
     29 H2        -34.6124   29.8230   59.6389 H         1 <0>         0.0600 
     30 H3        -35.6071   29.3354   61.0168 H         1 <0>         0.0600 
     31 H4        -27.5626   26.6280   65.1191 H         1 <0>         0.0600 
     32 H5        -28.7261   26.6240   66.4425 H         1 <0>         0.0600 
     33 H6        -27.1619   25.8803   66.6522 H         1 <0>         0.0600 
     34 H7        -26.9263   24.2162   64.0473 H         1 <0>         0.0600 
     35 H8        -26.6131   23.6639   65.6895 H         1 <0>         0.0600 
     36 H9        -27.7604   22.7955   64.6791 H         1 <0>         0.0600 
     37 H10       -34.2585   23.1435   63.9589 H         1 <0>         0.0600 
     38 H11       -33.8180   21.7436   64.9290 H         1 <0>         0.0600 
     39 H12       -35.1779   23.8143   66.0522 H         1 <0>         0.0600 
     40 H13       -33.8934   23.0073   66.9422 H         1 <0>         0.0600 
     41 H14       -31.9889   23.2769   63.5622 H         1 <0>         0.0600 
     42 H15       -31.5453   22.4554   65.0533 H         1 <0>         0.0600 
     43 H16       -34.4157   27.1101   61.0543 H         1 <0>         0.0600 
     44 H17       -33.4612   27.6023   59.6681 H         1 <0>         0.0600 
     45 H18       -32.5891   29.5435   61.0537 H         1 <0>         0.0600 
     46 H19       -33.4726   28.9311   62.4183 H         1 <0>         0.0600 
     47 H20       -31.2221   28.2226   62.7064 H         1 <0>         0.0600 
     48 H21       -32.1442   26.8022   62.3040 H         1 <0>         0.0600 
     49 H22       -31.2562   26.8307   59.9907 H         1 <0>         0.0600 
     50 H23       -30.5516   28.4075   60.2297 H         1 <0>         0.0600 
     51 H24       -32.6073   24.6652   68.1172 H         1 <0>         0.0600 
     52 H25       -32.2950   26.2557   67.4582 H         1 <0>         0.0600 
     53 H26       -27.8224   25.6667   60.2541 H         1 <0>         0.0600 
     54 H27       -29.1481   26.0019   59.1808 H         1 <0>         0.0600 
     55 H28       -33.7508   25.6306   65.4287 H         1 <0>         0.0600 
     56 H29       -28.9344   24.1992   66.3468 H         1 <0>         0.0600 
     57 H30       -28.9045   27.5585   61.7849 H         1 <0>         0.0600 
     58 H31       -29.8419   23.7853   63.9987 H         1 <0>         0.0600 
     59 H32       -28.9106   26.5860   63.6525 H         1 <0>         0.3000 
     60 H33       -28.2953   27.1667   57.4880 H         1 <0>         0.3000 
     61 H34       -34.8592   25.2472   67.9768 H         1 <0>         0.4180 
     62 H35       -26.9014   28.5717   56.6234 H         1 <0>         0.3619 
@<TRIPOS>BOND
     1    1    7 1    
     2    1   28 1    
     3    1   29 1    
     4    1   30 1    
     5    2   14 1    
     6    2   31 1    
     7    2   32 1    
     8    2   33 1    
     9    3   14 1    
    10    3   34 1    
    11    3   35 1    
    12    3   36 1    
    13    4    5 1    
    14    4    6 1    
    15    4   37 1    
    16    4   38 1    
    17    5   13 1    
    18    5   39 1    
    19    5   40 1    
    20    6   22 1    
    21    6   41 1    
    22    6   42 1    
    23    7    8 1    
    24    7   43 1    
    25    7   44 1    
    26    8    9 1    
    27    8   45 1    
    28    8   46 1    
    29    9   10 1    
    30    9   47 1    
    31    9   48 1    
    32   10   15 1    
    33   10   49 1    
    34   10   50 1    
    35   11   13 1    
    36   11   23 1    
    37   11   51 1    
    38   11   52 1    
    39   12   15 1    
    40   12   17 1    
    41   12   53 1    
    42   12   54 1    
    43   13   22 1    
    44   13   55 1    
    45   14   16 1    
    46   14   56 1    
    47   15   18 1    
    48   15   57 1    
    49   16   19 1    
    50   16   20 1    
    51   16   58 1    
    52   17   21 am   BACKBONE|DICT|INTERRES
    53   17   25 2    
    54   18   20 am   BACKBONE|DICT|INTERRES
    55   18   26 2    
    56   19   22 am   BACKBONE|DICT|INTERRES
    57   19   27 2    
    58   20   59 1    
    59   21   24 1    
    60   21   60 1    
    61   23   61 1    
    62   24   62 1    
@<TRIPOS>SUBSTRUCTURE
     1 <0>         1 GROUP             0       ****    0 ROOT    
@<TRIPOS>MOLECULE
BB2_501_1LRU
62   62    1
SMALL
USER_CHARGES


@<TRIPOS>ATOM
      1 C1        -34.7948   24.9549   62.3462 C.3       1 <0>        -0.1800 
      2 C2        -28.2011   26.1766   65.8956 C.3       1 <0>        -0.1800 
      3 C3        -27.4345   24.0616   64.7553 C.3       1 <0>        -0.1800 
      4 C4        -33.5769   22.4064   64.9454 C.3       1 <0>        -0.1200 
      5 C5        -34.0513   23.1532   66.1798 C.3       1 <0>        -0.1200 
      6 C6        -32.1868   22.9748   64.6696 C.3       1 <0>        -0.0500 
      7 C7        -33.4524   25.5856   61.9470 C.3       1 <0>        -0.1200 
      8 C8        -33.4937   27.1200   61.8222 C.3       1 <0>        -0.1200 
      9 C9        -32.1073   27.8044   61.8101 C.3       1 <0>        -0.1200 
     10 C10       -31.1501   27.3806   60.6647 C.3       1 <0>        -0.1200 
     11 C11       -33.1787   25.1628   67.4927 C.3       1 <0>         0.1450 
     12 C12       -28.8772   26.4527   59.8960 C.3       1 <0>        -0.1200 
     13 C13       -33.3715   24.5252   66.0916 C.3       1 <0>         0.0100 
     14 C14       -28.6389   24.7968   65.3713 C.3       1 <0>        -0.0600 
     15 C15       -29.7649   26.8341   61.1149 C.3       1 <0>        -0.0600 
     16 C16       -29.8510   24.8050   64.3920 C.3       1 <0>         0.1400 
     17 C17       -27.8274   27.4821   59.4521 C.2       1 <0>         0.5000 
     18 C18       -29.9251   25.6124   62.0353 C.2       1 <0>         0.5000 
     19 C19       -31.1547   25.2019   65.1353 C.2       1 <0>         0.5000 
     20 N1        -29.6109   25.7824   63.3289 N.am      1 <0>        -0.5000 
     21 N2        -27.4525   27.4234   58.1697 N.am      1 <0>        -0.2244 
     22 N3        -32.1220   24.2750   65.3457 N.am      1 <0>        -0.1400 
     23 O1        -33.4093   26.5568   67.4522 O.3       1 <0>        -0.6830 
     24 O2        -26.1255   27.8298   57.9269 O.3       1 <0>        -0.4375 
     25 O3        -27.2791   28.2317   60.2577 O.2       1 <0>        -0.5000 
     26 O4        -30.3382   24.5461   61.5780 O.2       1 <0>        -0.5000 
     27 O5        -31.2866   26.3673   65.5143 O.2       1 <0>        -0.5000 
     28 H1        -34.8127   23.8903   62.1069 H         1 <0>         0.0600 
     29 H2        -35.6434   25.4265   61.8531 H         1 <0>         0.0600 
     30 H3        -34.9701   25.0433   63.4178 H         1 <0>         0.0600 
     31 H4        -27.9416   26.8617   65.0896 H         1 <0>         0.0600 
     32 H5        -28.9904   26.6234   66.4918 H         1 <0>         0.0600 
     33 H6        -27.3334   26.0909   66.5475 H         1 <0>         0.0600 
     34 H7        -27.0629   24.5721   63.8665 H         1 <0>         0.0600 
     35 H8        -26.6127   23.9930   65.4676 H         1 <0>         0.0600 
     36 H9        -27.6979   23.0417   64.4701 H         1 <0>         0.0600 
     37 H10       -34.2387   22.6245   64.1071 H         1 <0>         0.0600 
     38 H11       -33.5693   21.3248   65.0797 H         1 <0>         0.0600 
     39 H12       -35.1379   23.2263   66.2268 H         1 <0>         0.0600 
     40 H13       -33.7159   22.6234   67.0726 H         1 <0>         0.0600 
     41 H14       -32.0335   23.0706   63.5935 H         1 <0>         0.0600 
     42 H15       -31.4107   22.3142   65.0531 H         1 <0>         0.0600 
     43 H16       -32.7135   25.2962   62.6903 H         1 <0>         0.0600 
     44 H17       -33.1188   25.1520   61.0042 H         1 <0>         0.0600 
     45 H18       -34.0508   27.3968   60.9269 H         1 <0>         0.0600 
     46 H19       -34.0589   27.5245   62.6632 H         1 <0>         0.0600 
     47 H20       -32.2753   28.8773   61.7299 H         1 <0>         0.0600 
     48 H21       -31.6340   27.6728   62.7845 H         1 <0>         0.0600 
     49 H22       -31.6407   26.6510   60.0205 H         1 <0>         0.0600 
     50 H23       -30.9814   28.2472   60.0247 H         1 <0>         0.0600 
     51 H24       -33.8930   24.7465   68.2041 H         1 <0>         0.0600 
     52 H25       -32.1892   24.9650   67.8981 H         1 <0>         0.0600 
     53 H26       -28.3147   25.5383   60.0929 H         1 <0>         0.0600 
     54 H27       -29.5235   26.2162   59.0530 H         1 <0>         0.0600 
     55 H28       -34.0005   25.1711   65.4781 H         1 <0>         0.0600 
     56 H29       -28.9335   24.2220   66.2495 H         1 <0>         0.0600 
     57 H30       -29.2745   27.6167   61.6962 H         1 <0>         0.0600 
     58 H31       -29.9261   23.8073   63.9652 H         1 <0>         0.0600 
     59 H32       -29.3176   26.7013   63.6300 H         1 <0>         0.3000 
     60 H33       -27.7464   26.7106   57.5106 H         1 <0>         0.3000 
     61 H34       -32.7762   26.9310   66.8506 H         1 <0>         0.4180 
     62 H35       -25.8819   28.2224   58.7561 H         1 <0>         0.3619 
@<TRIPOS>BOND
     1    1    7 1    
     2    1   28 1    
     3    1   29 1    
     4    1   30 1    
     5    2   14 1    
     6    2   31 1    
     7    2   32 1    
     8    2   33 1    
     9    3   14 1    
    10    3   34 1    
    11    3   35 1    
    12    3   36 1    
    13    4    5 1    
    14    4    6 1    
    15    4   37 1    
    16    4   38 1    
    17    5   13 1    
    18    5   39 1    
    19    5   40 1    
    20    6   22 1    
    21    6   41 1    
    22    6   42 1    
    23    7    8 1    
    24    7   43 1    
    25    7   44 1    
    26    8    9 1    
    27    8   45 1    
    28    8   46 1    
    29    9   10 1    
    30    9   47 1    
    31    9   48 1    
    32   10   15 1    
    33   10   49 1    
    34   10   50 1    
    35   11   13 1    
    36   11   23 1    
    37   11   51 1    
    38   11   52 1    
    39   12   15 1    
    40   12   17 1    
    41   12   53 1    
    42   12   54 1    
    43   13   22 1    
    44   13   55 1    
    45   14   16 1    
    46   14   56 1    
    47   15   18 1    
    48   15   57 1    
    49   16   19 1    
    50   16   20 1    
    51   16   58 1    
    52   17   21 am   BACKBONE|DICT|INTERRES
    53   17   25 2    
    54   18   20 am   BACKBONE|DICT|INTERRES
    55   18   26 2    
    56   19   22 am   BACKBONE|DICT|INTERRES
    57   19   27 2    
    58   20   59 1    
    59   21   24 1    
    60   21   60 1    
    61   23   61 1    
    62   24   62 1    
@<TRIPOS>SUBSTRUCTURE
     1 <0>         1 GROUP             0       ****    0 ROOT    
@<TRIPOS>MOLECULE
BB2_501_1LRU
62   62    1
SMALL
USER_CHARGES


@<TRIPOS>ATOM
      1 C1        -35.0207   28.9245   60.1957 C.3       1 <0>        -0.1800 
      2 C2        -27.9577   26.0299   65.9219 C.3       1 <0>        -0.1800 
      3 C3        -27.3680   23.7793   64.9449 C.3       1 <0>        -0.1800 
      4 C4        -33.6293   22.7428   64.8161 C.3       1 <0>        -0.1200 
      5 C5        -34.0751   23.5180   66.0425 C.3       1 <0>        -0.1200 
      6 C6        -32.1668   23.1448   64.6269 C.3       1 <0>        -0.0500 
      7 C7        -33.9004   27.9576   60.5894 C.3       1 <0>        -0.1200 
      8 C8        -32.8821   28.6254   61.5258 C.3       1 <0>        -0.1200 
      9 C9        -31.6948   27.7367   61.9192 C.3       1 <0>        -0.1200 
     10 C10       -30.7090   27.4683   60.7602 C.3       1 <0>        -0.1200 
     11 C11       -33.0086   25.3811   67.4400 C.3       1 <0>         0.1450 
     12 C12       -28.4947   26.4316   59.9725 C.3       1 <0>        -0.1200 
     13 C13       -33.2336   24.8031   66.0198 C.3       1 <0>         0.0100 
     14 C14       -28.5136   24.6713   65.4510 C.3       1 <0>        -0.0600 
     15 C15       -29.3745   26.8045   61.1864 C.3       1 <0>        -0.0600 
     16 C16       -29.6649   24.7469   64.4066 C.3       1 <0>         0.1400 
     17 C17       -27.6849   27.6001   59.4061 C.2       1 <0>         0.5000 
     18 C18       -29.6241   25.5677   62.0585 C.2       1 <0>         0.5000 
     19 C19       -30.9596   25.2787   65.0769 C.2       1 <0>         0.5000 
     20 N1        -29.2863   25.6796   63.3491 N.am      1 <0>        -0.5000 
     21 N2        -27.8087   27.8237   58.0901 N.am      1 <0>        -0.2244 
     22 N3        -31.9978   24.4375   65.2952 N.am      1 <0>        -0.1400 
     23 O1        -34.2210   25.8668   67.9764 O.3       1 <0>        -0.6830 
     24 O2        -26.6120   28.2227   57.4528 O.3       1 <0>        -0.4375 
     25 O3        -26.9119   28.2226   60.1322 O.2       1 <0>        -0.5000 
     26 O4        -30.1495   24.5651   61.5758 O.2       1 <0>        -0.5000 
     27 O5        -31.0114   26.4677   65.3894 O.2       1 <0>        -0.5000 
     28 H1        -35.6878   28.4831   59.4586 H         1 <0>         0.0600 
     29 H2        -34.6115   29.8234   59.7428 H         1 <0>         0.0600 
     30 H3        -35.6205   29.2217   61.0556 H         1 <0>         0.0600 
     31 H4        -27.5444   26.6147   65.1026 H         1 <0>         0.0600 
     32 H5        -28.7253   26.6234   66.4084 H         1 <0>         0.0600 
     33 H6        -27.1627   25.8941   66.6514 H         1 <0>         0.0600 
     34 H7        -26.8740   24.2146   64.0751 H         1 <0>         0.0600 
     35 H8        -26.6117   23.6340   65.7168 H         1 <0>         0.0600 
     36 H9        -27.7316   22.7911   64.6592 H         1 <0>         0.0600 
     37 H10       -34.2110   23.0580   63.9497 H         1 <0>         0.0600 
     38 H11       -33.7586   21.6661   64.9240 H         1 <0>         0.0600 
     39 H12       -35.1469   23.7167   66.0440 H         1 <0>         0.0600 
     40 H13       -33.8439   22.9331   66.9345 H         1 <0>         0.0600 
     41 H14       -31.9431   23.2138   63.5586 H         1 <0>         0.0600 
     42 H15       -31.4926   22.4036   65.0536 H         1 <0>         0.0600 
     43 H16       -34.3262   27.0780   61.0752 H         1 <0>         0.0600 
     44 H17       -33.4036   27.6078   59.6858 H         1 <0>         0.0600 
     45 H18       -32.5005   29.5266   61.0534 H         1 <0>         0.0600 
     46 H19       -33.3992   28.9469   62.4315 H         1 <0>         0.0600 
     47 H20       -31.1539   28.2227   62.7321 H         1 <0>         0.0600 
     48 H21       -32.0753   26.8029   62.3338 H         1 <0>         0.0600 
     49 H22       -31.2008   26.8492   60.0076 H         1 <0>         0.0600 
     50 H23       -30.4811   28.4148   60.2667 H         1 <0>         0.0600 
     51 H24       -32.6082   24.6232   68.1097 H         1 <0>         0.0600 
     52 H25       -32.3057   26.2119   67.4475 H         1 <0>         0.0600 
     53 H26       -27.7719   25.6618   60.2478 H         1 <0>         0.0600 
     54 H27       -29.1159   25.9901   59.1934 H         1 <0>         0.0600 
     55 H28       -33.7385   25.5504   65.4042 H         1 <0>         0.0600 
     56 H29       -28.9150   24.1921   66.3443 H         1 <0>         0.0600 
     57 H30       -28.8367   27.5285   61.8031 H         1 <0>         0.0600 
     58 H31       -29.8078   23.7547   63.9895 H         1 <0>         0.0600 
     59 H32       -28.8894   26.5542   63.6562 H         1 <0>         0.3000 
     60 H33       -28.2932   27.1597   57.4939 H         1 <0>         0.3000 
     61 H34       -34.8583   25.1687   67.9509 H         1 <0>         0.4180 
     62 H35       -26.9014   28.5599   56.6143 H         1 <0>         0.3619 
@<TRIPOS>BOND
     1    1    7 1    
     2    1   28 1    
     3    1   29 1    
     4    1   30 1    
     5    2   14 1    
     6    2   31 1    
     7    2   32 1    
     8    2   33 1    
     9    3   14 1    
    10    3   34 1    
    11    3   35 1    
    12    3   36 1    
    13    4    5 1    
    14    4    6 1    
    15    4   37 1    
    16    4   38 1    
    17    5   13 1    
    18    5   39 1    
    19    5   40 1    
    20    6   22 1    
    21    6   41 1    
    22    6   42 1    
    23    7    8 1    
    24    7   43 1    
    25    7   44 1    
    26    8    9 1    
    27    8   45 1    
    28    8   46 1    
    29    9   10 1    
    30    9   47 1    
    31    9   48 1    
    32   10   15 1    
    33   10   49 1    
    34   10   50 1    
    35   11   13 1    
    36   11   23 1    
    37   11   51 1    
    38   11   52 1    
    39   12   15 1    
    40   12   17 1    
    41   12   53 1    
    42   12   54 1    
    43   13   22 1    
    44   13   55 1    
    45   14   16 1    
    46   14   56 1    
    47   15   18 1    
    48   15   57 1    
    49   16   19 1    
    50   16   20 1    
    51   16   58 1    
    52   17   21 am   BACKBONE|DICT|INTERRES
    53   17   25 2    
    54   18   20 am   BACKBONE|DICT|INTERRES
    55   18   26 2    
    56   19   22 am   BACKBONE|DICT|INTERRES
    57   19   27 2    
    58   20   59 1    
    59   21   24 1    
    60   21   60 1    
    61   23   61 1    
    62   24   62 1    
@<TRIPOS>SUBSTRUCTURE
     1 <0>         1 GROUP             0       ****    0 ROOT    
@<TRIPOS>MOLECULE
BB2_501_1LRU
62   62    1
SMALL
USER_CHARGES


@<TRIPOS>ATOM
      1 C1        -34.5998   27.8327   62.0694 C.3       1 <0>        -0.1800 
      2 C2        -28.1844   26.0705   66.1469 C.3       1 <0>        -0.1800 
      3 C3        -27.4094   23.8744   65.1864 C.3       1 <0>        -0.1800 
      4 C4        -33.5952   22.4243   64.7532 C.3       1 <0>        -0.1200 
      5 C5        -34.1116   23.1429   65.9882 C.3       1 <0>        -0.1200 
      6 C6        -32.1612   22.9297   64.6072 C.3       1 <0>        -0.0500 
      7 C7        -33.8121   28.8486   61.2347 C.3       1 <0>        -0.1200 
      8 C8        -32.6817   28.2194   60.4129 C.3       1 <0>        -0.1200 
      9 C9        -31.6045   27.5403   61.2678 C.3       1 <0>        -0.1200 
     10 C10       -30.4041   27.0790   60.4266 C.3       1 <0>        -0.1200 
     11 C11       -33.2282   25.0707   67.4181 C.3       1 <0>         0.1450 
     12 C12       -28.0512   26.0874   60.3469 C.3       1 <0>        -0.1200 
     13 C13       -33.3843   24.4962   65.9844 C.3       1 <0>         0.0100 
     14 C14       -28.6326   24.6802   65.6576 C.3       1 <0>        -0.0600 
     15 C15       -29.2058   26.5617   61.2560 C.3       1 <0>        -0.0600 
     16 C16       -29.7462   24.6793   64.5685 C.3       1 <0>         0.1400 
     17 C17       -27.3122   27.2241   59.6366 C.2       1 <0>         0.5000 
     18 C18       -29.6064   25.4220   62.2004 C.2       1 <0>         0.5000 
     19 C19       -31.1006   25.1227   65.1739 C.2       1 <0>         0.5000 
     20 N1        -29.3752   25.6109   63.5061 N.am      1 <0>        -0.5000 
     21 N2        -27.0108   27.0240   58.3500 N.am      1 <0>        -0.2244 
     22 N3        -32.1061   24.2226   65.3010 N.am      1 <0>        -0.1400 
     23 O1        -33.4091   26.4723   67.4207 O.3       1 <0>        -0.6830 
     24 O2        -25.9653   27.8236   57.8507 O.3       1 <0>        -0.4375 
     25 O3        -26.9465   28.2238   60.2530 O.2       1 <0>        -0.5000 
     26 O4        -30.1249   24.4006   61.7486 O.2       1 <0>        -0.5000 
     27 O5        -31.2361   26.2925   65.5387 O.2       1 <0>        -0.5000 
     28 H1        -35.4099   28.3334   62.5887 H         1 <0>         0.0600 
     29 H2        -33.9739   27.3659   62.8289 H         1 <0>         0.0600 
     30 H3        -35.0284   27.0455   61.4523 H         1 <0>         0.0600 
     31 H4        -27.7783   26.6727   65.3370 H         1 <0>         0.0600 
     32 H5        -29.0061   26.6233   66.5969 H         1 <0>         0.0600 
     33 H6        -27.4124   25.9856   66.9111 H         1 <0>         0.0600 
     34 H7        -26.9316   24.3471   64.3269 H         1 <0>         0.0600 
     35 H8        -26.6653   23.7868   65.9753 H         1 <0>         0.0600 
     36 H9        -27.6917   22.8627   64.8931 H         1 <0>         0.0600 
     37 H10       -34.1819   22.7225   63.8803 H         1 <0>         0.0600 
     38 H11       -33.6565   21.3380   64.8358 H         1 <0>         0.0600 
     39 H12       -35.1961   23.2495   65.9877 H         1 <0>         0.0600 
     40 H13       -33.8317   22.5703   66.8736 H         1 <0>         0.0600 
     41 H14       -31.9074   23.0283   63.5501 H         1 <0>         0.0600 
     42 H15       -31.4510   22.2321   65.0542 H         1 <0>         0.0600 
     43 H16       -34.4984   29.3612   60.5607 H         1 <0>         0.0600 
     44 H17       -33.4045   29.6128   61.8943 H         1 <0>         0.0600 
     45 H18       -33.0984   27.5024   59.7080 H         1 <0>         0.0600 
     46 H19       -32.2070   29.0008   59.8188 H         1 <0>         0.0600 
     47 H20       -31.2600   28.2233   62.0429 H         1 <0>         0.0600 
     48 H21       -32.0400   26.6860   61.7887 H         1 <0>         0.0600 
     49 H22       -30.7298   26.3126   59.7198 H         1 <0>         0.0600 
     50 H23       -30.0699   27.9238   59.8225 H         1 <0>         0.0600 
     51 H24       -33.9875   24.6586   68.0821 H         1 <0>         0.0600 
     52 H25       -32.2617   24.8169   67.8547 H         1 <0>         0.0600 
     53 H26       -27.3090   25.5433   60.9377 H         1 <0>         0.0600 
     54 H27       -28.4279   25.3743   59.6120 H         1 <0>         0.0600 
     55 H28       -33.9581   25.1874   65.3605 H         1 <0>         0.0600 
     56 H29       -29.0327   24.1744   66.5378 H         1 <0>         0.0600 
     57 H30       -28.8505   27.3885   61.8754 H         1 <0>         0.0600 
     58 H31       -29.8015   23.6696   64.1640 H         1 <0>         0.0600 
     59 H32       -28.9825   26.4915   63.8028 H         1 <0>         0.3000 
     60 H33       -27.2085   26.2249   57.7650 H         1 <0>         0.3000 
     61 H34       -32.7432   26.8453   66.8548 H         1 <0>         0.4180 
     62 H35       -25.7960   28.4129   58.5765 H         1 <0>         0.3619 
@<TRIPOS>BOND
     1    1    7 1    
     2    1   28 1    
     3    1   29 1    
     4    1   30 1    
     5    2   14 1    
     6    2   31 1    
     7    2   32 1    
     8    2   33 1    
     9    3   14 1    
    10    3   34 1    
    11    3   35 1    
    12    3   36 1    
    13    4    5 1    
    14    4    6 1    
    15    4   37 1    
    16    4   38 1    
    17    5   13 1    
    18    5   39 1    
    19    5   40 1    
    20    6   22 1    
    21    6   41 1    
    22    6   42 1    
    23    7    8 1    
    24    7   43 1    
    25    7   44 1    
    26    8    9 1    
    27    8   45 1    
    28    8   46 1    
    29    9   10 1    
    30    9   47 1    
    31    9   48 1    
    32   10   15 1    
    33   10   49 1    
    34   10   50 1    
    35   11   13 1    
    36   11   23 1    
    37   11   51 1    
    38   11   52 1    
    39   12   15 1    
    40   12   17 1    
    41   12   53 1    
    42   12   54 1    
    43   13   22 1    
    44   13   55 1    
    45   14   16 1    
    46   14   56 1    
    47   15   18 1    
    48   15   57 1    
    49   16   19 1    
    50   16   20 1    
    51   16   58 1    
    52   17   21 am   BACKBONE|DICT|INTERRES
    53   17   25 2    
    54   18   20 am   BACKBONE|DICT|INTERRES
    55   18   26 2    
    56   19   22 am   BACKBONE|DICT|INTERRES
    57   19   27 2    
    58   20   59 1    
    59   21   24 1    
    60   21   60 1    
    61   23   61 1    
    62   24   62 1    
@<TRIPOS>SUBSTRUCTURE
     1 <0>         1 GROUP             0       ****    0 ROOT    
@<TRIPOS>MOLECULE
BB2_501_1LRU
62   62    1
SMALL
USER_CHARGES


@<TRIPOS>ATOM
      1 C1        -35.0616   29.0174   60.2000 C.3       1 <0>        -0.1800 
      2 C2        -27.9600   26.0312   65.9589 C.3       1 <0>        -0.1800 
      3 C3        -27.4506   23.7889   64.9330 C.3       1 <0>        -0.1800 
      4 C4        -33.7211   22.9555   65.0987 C.3       1 <0>        -0.1200 
      5 C5        -34.1428   23.8314   66.2652 C.3       1 <0>        -0.1200 
      6 C6        -32.2535   23.3087   64.8819 C.3       1 <0>        -0.0500 
      7 C7        -33.9936   28.0113   60.6468 C.3       1 <0>        -0.1200 
      8 C8        -32.9367   28.6721   61.5447 C.3       1 <0>        -0.1200 
      9 C9        -31.7648   27.7592   61.9307 C.3       1 <0>        -0.1200 
     10 C10       -30.7725   27.4900   60.7743 C.3       1 <0>        -0.1200 
     11 C11       -33.0003   25.7340   67.5312 C.3       1 <0>         0.1450 
     12 C12       -28.5442   26.4481   60.0024 C.3       1 <0>        -0.1200 
     13 C13       -33.2703   25.0909   66.1479 C.3       1 <0>         0.0100 
     14 C14       -28.5643   24.7000   65.4812 C.3       1 <0>        -0.0600 
     15 C15       -29.4359   26.8350   61.2097 C.3       1 <0>        -0.0600 
     16 C16       -29.7353   24.8290   64.4631 C.3       1 <0>         0.1400 
     17 C17       -27.7080   27.6017   59.4400 C.2       1 <0>         0.5000 
     18 C18       -29.6856   25.6087   62.0994 C.2       1 <0>         0.5000 
     19 C19       -30.9890   25.4376   65.1495 C.2       1 <0>         0.5000 
     20 N1        -29.3371   25.7325   63.3853 N.am      1 <0>        -0.5000 
     21 N2        -27.8092   27.8235   58.1205 N.am      1 <0>        -0.2244 
     22 N3        -32.0583   24.6517   65.4306 N.am      1 <0>        -0.1400 
     23 O1        -34.2077   26.1530   68.1396 O.3       1 <0>        -0.6830 
     24 O2        -26.6101   28.2247   57.4918 O.3       1 <0>        -0.4375 
     25 O3        -26.9353   28.2199   60.1726 O.2       1 <0>        -0.5000 
     26 O4        -30.2217   24.6033   61.6338 O.2       1 <0>        -0.5000 
     27 O5        -30.9847   26.6386   65.4188 O.2       1 <0>        -0.5000 
     28 H1        -35.8092   28.5673   59.5506 H         1 <0>         0.0600 
     29 H2        -34.6097   29.8237   59.6324 H         1 <0>         0.0600 
     30 H3        -35.5835   29.4470   61.0530 H         1 <0>         0.0600 
     31 H4        -27.5686   26.6240   65.1343 H         1 <0>         0.0600 
     32 H5        -28.6977   26.6232   66.4915 H         1 <0>         0.0600 
     33 H6        -27.1392   25.8640   66.6497 H         1 <0>         0.0600 
     34 H7        -26.9745   24.2213   64.0521 H         1 <0>         0.0600 
     35 H8        -26.6754   23.6231   65.6813 H         1 <0>         0.0600 
     36 H9        -27.8404   22.8103   64.6500 H         1 <0>         0.0600 
     37 H10       -34.2963   23.2247   64.2104 H         1 <0>         0.0600 
     38 H11       -33.8777   21.8919   65.2838 H         1 <0>         0.0600 
     39 H12       -35.2106   24.0542   66.2510 H         1 <0>         0.0600 
     40 H13       -33.9260   23.3049   67.1959 H         1 <0>         0.0600 
     41 H14       -32.0195   23.2568   63.8177 H         1 <0>         0.0600 
     42 H15       -31.5952   22.6235   65.4087 H         1 <0>         0.0600 
     43 H16       -34.4649   27.1886   61.1861 H         1 <0>         0.0600 
     44 H17       -33.5200   27.5773   59.7665 H         1 <0>         0.0600 
     45 H18       -32.5389   29.5558   61.0532 H         1 <0>         0.0600 
     46 H19       -33.4219   29.0233   62.4562 H         1 <0>         0.0600 
     47 H20       -31.2240   28.2232   62.7563 H         1 <0>         0.0600 
     48 H21       -32.1606   26.8228   62.3289 H         1 <0>         0.0600 
     49 H22       -31.2580   26.8673   60.0230 H         1 <0>         0.0600 
     50 H23       -30.5426   28.4339   60.2800 H         1 <0>         0.0600 
     51 H24       -32.4949   25.0289   68.1917 H         1 <0>         0.0600 
     52 H25       -32.3605   26.6106   67.4527 H         1 <0>         0.0600 
     53 H26       -27.8339   25.6698   60.2891 H         1 <0>         0.0600 
     54 H27       -29.1617   26.0108   59.2165 H         1 <0>         0.0600 
     55 H28       -33.7749   25.8158   65.5069 H         1 <0>         0.0600 
     56 H29       -28.9615   24.2219   66.3763 H         1 <0>         0.0600 
     57 H30       -28.9004   27.5659   61.8205 H         1 <0>         0.0600 
     58 H31       -29.9321   23.8397   64.0567 H         1 <0>         0.0600 
     59 H32       -28.9329   26.6100   63.6777 H         1 <0>         0.3000 
     60 H33       -28.2925   27.1625   57.5206 H         1 <0>         0.3000 
     61 H34       -34.7906   25.4101   68.1884 H         1 <0>         0.4180 
     62 H35       -26.8996   28.5788   56.6612 H         1 <0>         0.3619 
@<TRIPOS>BOND
     1    1    7 1    
     2    1   28 1    
     3    1   29 1    
     4    1   30 1    
     5    2   14 1    
     6    2   31 1    
     7    2   32 1    
     8    2   33 1    
     9    3   14 1    
    10    3   34 1    
    11    3   35 1    
    12    3   36 1    
    13    4    5 1    
    14    4    6 1    
    15    4   37 1    
    16    4   38 1    
    17    5   13 1    
    18    5   39 1    
    19    5   40 1    
    20    6   22 1    
    21    6   41 1    
    22    6   42 1    
    23    7    8 1    
    24    7   43 1    
    25    7   44 1    
    26    8    9 1    
    27    8   45 1    
    28    8   46 1    
    29    9   10 1    
    30    9   47 1    
    31    9   48 1    
    32   10   15 1    
    33   10   49 1    
    34   10   50 1    
    35   11   13 1    
    36   11   23 1    
    37   11   51 1    
    38   11   52 1    
    39   12   15 1    
    40   12   17 1    
    41   12   53 1    
    42   12   54 1    
    43   13   22 1    
    44   13   55 1    
    45   14   16 1    
    46   14   56 1    
    47   15   18 1    
    48   15   57 1    
    49   16   19 1    
    50   16   20 1    
    51   16   58 1    
    52   17   21 am   BACKBONE|DICT|INTERRES
    53   17   25 2    
    54   18   20 am   BACKBONE|DICT|INTERRES
    55   18   26 2    
    56   19   22 am   BACKBONE|DICT|INTERRES
    57   19   27 2    
    58   20   59 1    
    59   21   24 1    
    60   21   60 1    
    61   23   61 1    
    62   24   62 1    
@<TRIPOS>SUBSTRUCTURE
     1 <0>         1 GROUP             0       ****    0 ROOT    
@<TRIPOS>MOLECULE
BB2_501_1LRU
62   62    1
SMALL
USER_CHARGES


@<TRIPOS>ATOM
      1 C1        -35.0484   28.8971   60.2117 C.3       1 <0>        -0.1800 
      2 C2        -27.8962   25.9881   65.8852 C.3       1 <0>        -0.1800 
      3 C3        -27.3879   23.7032   64.9503 C.3       1 <0>        -0.1800 
      4 C4        -33.6584   22.7913   64.7882 C.3       1 <0>        -0.1200 
      5 C5        -34.1037   23.5715   66.0146 C.3       1 <0>        -0.1200 
      6 C6        -32.1882   23.1663   64.6194 C.3       1 <0>        -0.0500 
      7 C7        -33.9106   27.9387   60.5868 C.3       1 <0>        -0.1200 
      8 C8        -32.9106   28.6162   61.5379 C.3       1 <0>        -0.1200 
      9 C9        -31.7091   27.7422   61.9259 C.3       1 <0>        -0.1200 
     10 C10       -30.7136   27.4919   60.7696 C.3       1 <0>        -0.1200 
     11 C11       -33.0010   25.3910   67.4421 C.3       1 <0>         0.1450 
     12 C12       -28.5140   26.4370   59.9721 C.3       1 <0>        -0.1200 
     13 C13       -33.2321   24.8374   66.0130 C.3       1 <0>         0.0100 
     14 C14       -28.5009   24.6415   65.4485 C.3       1 <0>        -0.0600 
     15 C15       -29.3857   26.8126   61.1930 C.3       1 <0>        -0.0600 
     16 C16       -29.6603   24.7330   64.4093 C.3       1 <0>         0.1400 
     17 C17       -27.6936   27.6006   59.4097 C.2       1 <0>         0.5000 
     18 C18       -29.6431   25.5706   62.0604 C.2       1 <0>         0.5000 
     19 C19       -30.9465   25.2779   65.0850 C.2       1 <0>         0.5000 
     20 N1        -29.2766   25.6649   63.3463 N.am      1 <0>        -0.5000 
     21 N2        -27.8093   27.8235   58.0905 N.am      1 <0>        -0.2244 
     22 N3        -32.0006   24.4535   65.2975 N.am      1 <0>        -0.1400 
     23 O1        -34.2096   25.8756   67.9917 O.3       1 <0>        -0.6830 
     24 O2        -26.6121   28.2249   57.4552 O.3       1 <0>        -0.4375 
     25 O3        -26.9218   28.2228   60.1393 O.2       1 <0>        -0.5000 
     26 O4        -30.1992   24.5827   61.5820 O.2       1 <0>        -0.5000 
     27 O5        -30.9757   26.4646   65.4133 O.2       1 <0>        -0.5000 
     28 H1        -35.6978   28.4646   59.4536 H         1 <0>         0.0600 
     29 H2        -34.6540   29.8241   59.7993 H         1 <0>         0.0600 
     30 H3        -35.6595   29.1435   61.0807 H         1 <0>         0.0600 
     31 H4        -27.4197   26.5144   65.0580 H         1 <0>         0.0600 
     32 H5        -28.6486   26.6441   66.3104 H         1 <0>         0.0600 
     33 H6        -27.1393   25.8460   66.6528 H         1 <0>         0.0600 
     34 H7        -26.9080   24.0976   64.0554 H         1 <0>         0.0600 
     35 H8        -26.6204   23.5669   65.7091 H         1 <0>         0.0600 
     36 H9        -27.7855   22.7171   64.7052 H         1 <0>         0.0600 
     37 H10       -34.2256   23.1254   63.9180 H         1 <0>         0.0600 
     38 H11       -33.8146   21.7180   64.8900 H         1 <0>         0.0600 
     39 H12       -35.1720   23.7972   65.9980 H         1 <0>         0.0600 
     40 H13       -33.9049   22.9765   66.9071 H         1 <0>         0.0600 
     41 H14       -31.9496   23.2331   63.5551 H         1 <0>         0.0600 
     42 H15       -31.5339   22.4095   65.0536 H         1 <0>         0.0600 
     43 H16       -34.3110   27.0340   61.0527 H         1 <0>         0.0600 
     44 H17       -33.4037   27.6240   59.6748 H         1 <0>         0.0600 
     45 H18       -32.5560   29.5350   61.0795 H         1 <0>         0.0600 
     46 H19       -33.4393   28.9096   62.4479 H         1 <0>         0.0600 
     47 H20       -31.1819   28.2239   62.7492 H         1 <0>         0.0600 
     48 H21       -32.0842   26.7974   62.3216 H         1 <0>         0.0600 
     49 H22       -31.1999   26.8914   60.0015 H         1 <0>         0.0600 
     50 H23       -30.4777   28.4477   60.2984 H         1 <0>         0.0600 
     51 H24       -32.6011   24.6240   68.1020 H         1 <0>         0.0600 
     52 H25       -32.2942   26.2185   67.4528 H         1 <0>         0.0600 
     53 H26       -27.7980   25.6560   60.2373 H         1 <0>         0.0600 
     54 H27       -29.1424   26.0119   59.1922 H         1 <0>         0.0600 
     55 H28       -33.7184   25.6004   65.4037 H         1 <0>         0.0600 
     56 H29       -28.9101   24.1948   66.3545 H         1 <0>         0.0600 
     57 H30       -28.8358   27.5269   61.8113 H         1 <0>         0.0600 
     58 H31       -29.8153   23.7425   63.9898 H         1 <0>         0.0600 
     59 H32       -28.8527   26.5266   63.6527 H         1 <0>         0.3000 
     60 H33       -28.2974   27.1712   57.4899 H         1 <0>         0.3000 
     61 H34       -34.8403   25.1704   67.9866 H         1 <0>         0.4180 
     62 H35       -26.9012   28.5660   56.6196 H         1 <0>         0.3619 
@<TRIPOS>BOND
     1    1    7 1    
     2    1   28 1    
     3    1   29 1    
     4    1   30 1    
     5    2   14 1    
     6    2   31 1    
     7    2   32 1    
     8    2   33 1    
     9    3   14 1    
    10    3   34 1    
    11    3   35 1    
    12    3   36 1    
    13    4    5 1    
    14    4    6 1    
    15    4   37 1    
    16    4   38 1    
    17    5   13 1    
    18    5   39 1    
    19    5   40 1    
    20    6   22 1    
    21    6   41 1    
    22    6   42 1    
    23    7    8 1    
    24    7   43 1    
    25    7   44 1    
    26    8    9 1    
    27    8   45 1    
    28    8   46 1    
    29    9   10 1    
    30    9   47 1    
    31    9   48 1    
    32   10   15 1    
    33   10   49 1    
    34   10   50 1    
    35   11   13 1    
    36   11   23 1    
    37   11   51 1    
    38   11   52 1    
    39   12   15 1    
    40   12   17 1    
    41   12   53 1    
    42   12   54 1    
    43   13   22 1    
    44   13   55 1    
    45   14   16 1    
    46   14   56 1    
    47   15   18 1    
    48   15   57 1    
    49   16   19 1    
    50   16   20 1    
    51   16   58 1    
    52   17   21 am   BACKBONE|DICT|INTERRES
    53   17   25 2    
    54   18   20 am   BACKBONE|DICT|INTERRES
    55   18   26 2    
    56   19   22 am   BACKBONE|DICT|INTERRES
    57   19   27 2    
    58   20   59 1    
    59   21   24 1    
    60   21   60 1    
    61   23   61 1    
    62   24   62 1    
@<TRIPOS>SUBSTRUCTURE
     1 <0>         1 GROUP             0       ****    0 ROOT    
@<TRIPOS>MOLECULE
BB2_501_1LRU
62   62    1
SMALL
USER_CHARGES


@<TRIPOS>ATOM
      1 C1        -34.5720   27.8870   61.9925 C.3       1 <0>        -0.1800 
      2 C2        -28.1705   26.0283   66.0358 C.3       1 <0>        -0.1800 
      3 C3        -27.6378   23.8168   64.9542 C.3       1 <0>        -0.1800 
      4 C4        -33.8504   22.9516   65.1959 C.3       1 <0>        -0.1200 
      5 C5        -34.2378   23.8248   66.3752 C.3       1 <0>        -0.1200 
      6 C6        -32.3897   23.3083   64.9343 C.3       1 <0>        -0.0500 
      7 C7        -33.8313   28.8596   61.0628 C.3       1 <0>        -0.1200 
      8 C8        -32.7044   28.2036   60.2563 C.3       1 <0>        -0.1200 
      9 C9        -31.5599   27.6695   61.1273 C.3       1 <0>        -0.1200 
     10 C10       -30.3716   27.1708   60.2884 C.3       1 <0>        -0.1200 
     11 C11       -33.0424   25.7399   67.5766 C.3       1 <0>         0.1450 
     12 C12       -27.9804   26.2519   60.2189 C.3       1 <0>        -0.1200 
     13 C13       -33.3875   25.0944   66.2116 C.3       1 <0>         0.0100 
     14 C14       -28.7624   24.7199   65.4902 C.3       1 <0>        -0.0600 
     15 C15       -29.1518   26.7008   61.1201 C.3       1 <0>        -0.0600 
     16 C16       -29.9021   24.8927   64.4409 C.3       1 <0>         0.1400 
     17 C17       -27.2934   27.4057   59.4841 C.2       1 <0>         0.5000 
     18 C18       -29.5358   25.5530   62.0647 C.2       1 <0>         0.5000 
     19 C19       -31.1746   25.4869   65.0985 C.2       1 <0>         0.5000 
     20 N1        -29.4579   25.8002   63.3812 N.am      1 <0>        -0.5000 
     21 N2        -27.4169   27.4227   58.1519 N.am      1 <0>        -0.2244 
     22 N3        -32.2017   24.6722   65.4409 N.am      1 <0>        -0.1400 
     23 O1        -34.2111   26.1637   68.2501 O.3       1 <0>        -0.6830 
     24 O2        -26.4972   28.2239   57.4541 O.3       1 <0>        -0.4375 
     25 O3        -26.6114   28.2230   60.1012 O.2       1 <0>        -0.5000 
     26 O4        -29.9127   24.4765   61.5993 O.2       1 <0>        -0.5000 
     27 O5        -31.2077   26.6987   65.3122 O.2       1 <0>        -0.5000 
     28 H1        -35.4088   28.3870   62.4714 H         1 <0>         0.0600 
     29 H2        -33.9236   27.5139   62.7861 H         1 <0>         0.0600 
     30 H3        -34.9677   27.0286   61.4502 H         1 <0>         0.0600 
     31 H4        -27.7119   26.6260   65.2524 H         1 <0>         0.0600 
     32 H5        -28.9363   26.6236   66.5234 H         1 <0>         0.0600 
     33 H6        -27.4095   25.8278   66.7858 H         1 <0>         0.0600 
     34 H7        -27.1344   24.2682   64.1006 H         1 <0>         0.0600 
     35 H8        -26.8889   23.6291   65.7227 H         1 <0>         0.0600 
     36 H9        -28.0252   22.8497   64.6349 H         1 <0>         0.0600 
     37 H10       -34.4560   23.2183   64.3254 H         1 <0>         0.0600 
     38 H11       -34.0003   21.8880   65.3837 H         1 <0>         0.0600 
     39 H12       -35.3077   24.0341   66.4073 H         1 <0>         0.0600 
     40 H13       -33.9683   23.3098   67.2990 H         1 <0>         0.0600 
     41 H14       -32.1815   23.2274   63.8659 H         1 <0>         0.0600 
     42 H15       -31.7196   22.6256   65.4529 H         1 <0>         0.0600 
     43 H16       -34.5517   29.3034   60.3746 H         1 <0>         0.0600 
     44 H17       -33.4205   29.6813   61.6540 H         1 <0>         0.0600 
     45 H18       -33.1105   27.4003   59.6411 H         1 <0>         0.0600 
     46 H19       -32.2931   28.9435   59.5688 H         1 <0>         0.0600 
     47 H20       -31.2182   28.4518   61.8019 H         1 <0>         0.0600 
     48 H21       -31.9366   26.8631   61.7573 H         1 <0>         0.0600 
     49 H22       -30.7032   26.3619   59.6341 H         1 <0>         0.0600 
     50 H23       -30.0607   27.9799   59.6269 H         1 <0>         0.0600 
     51 H24       -32.5023   25.0367   68.2135 H         1 <0>         0.0600 
     52 H25       -32.4124   26.6191   67.4550 H         1 <0>         0.0600 
     53 H26       -27.2170   25.7562   60.8188 H         1 <0>         0.0600 
     54 H27       -28.3210   25.5063   59.4984 H         1 <0>         0.0600 
     55 H28       -33.9318   25.8152   65.5997 H         1 <0>         0.0600 
     56 H29       -29.1947   24.2248   66.3563 H         1 <0>         0.0600 
     57 H30       -28.8152   27.5422   61.7300 H         1 <0>         0.0600 
     58 H31       -30.1081   23.9126   64.0242 H         1 <0>         0.0600 
     59 H32       -29.1896   26.7268   63.6801 H         1 <0>         0.3000 
     60 H33       -27.8797   26.7489   57.5456 H         1 <0>         0.3000 
     61 H34       -34.7896   25.4206   68.3320 H         1 <0>         0.4180 
     62 H35       -26.0185   28.6456   58.1541 H         1 <0>         0.3619 
@<TRIPOS>BOND
     1    1    7 1    
     2    1   28 1    
     3    1   29 1    
     4    1   30 1    
     5    2   14 1    
     6    2   31 1    
     7    2   32 1    
     8    2   33 1    
     9    3   14 1    
    10    3   34 1    
    11    3   35 1    
    12    3   36 1    
    13    4    5 1    
    14    4    6 1    
    15    4   37 1    
    16    4   38 1    
    17    5   13 1    
    18    5   39 1    
    19    5   40 1    
    20    6   22 1    
    21    6   41 1    
    22    6   42 1    
    23    7    8 1    
    24    7   43 1    
    25    7   44 1    
    26    8    9 1    
    27    8   45 1    
    28    8   46 1    
    29    9   10 1    
    30    9   47 1    
    31    9   48 1    
    32   10   15 1    
    33   10   49 1    
    34   10   50 1    
    35   11   13 1    
    36   11   23 1    
    37   11   51 1    
    38   11   52 1    
    39   12   15 1    
    40   12   17 1    
    41   12   53 1    
    42   12   54 1    
    43   13   22 1    
    44   13   55 1    
    45   14   16 1    
    46   14   56 1    
    47   15   18 1    
    48   15   57 1    
    49   16   19 1    
    50   16   20 1    
    51   16   58 1    
    52   17   21 am   BACKBONE|DICT|INTERRES
    53   17   25 2    
    54   18   20 am   BACKBONE|DICT|INTERRES
    55   18   26 2    
    56   19   22 am   BACKBONE|DICT|INTERRES
    57   19   27 2    
    58   20   59 1    
    59   21   24 1    
    60   21   60 1    
    61   23   61 1    
    62   24   62 1    
@<TRIPOS>SUBSTRUCTURE
     1 <0>         1 GROUP             0       ****    0 ROOT    
@<TRIPOS>MOLECULE
BB2_501_1LRU
62   62    1
SMALL
USER_CHARGES


@<TRIPOS>ATOM
      1 C1        -34.5867   27.8778   62.0431 C.3       1 <0>        -0.1800 
      2 C2        -28.1834   26.0322   65.9728 C.3       1 <0>        -0.1800 
      3 C3        -27.6648   23.8225   64.8854 C.3       1 <0>        -0.1800 
      4 C4        -33.8618   22.9225   65.2674 C.3       1 <0>        -0.1200 
      5 C5        -34.2328   23.8160   66.4392 C.3       1 <0>        -0.1200 
      6 C6        -32.4156   23.3065   64.9540 C.3       1 <0>        -0.0500 
      7 C7        -33.7991   28.8693   61.1805 C.3       1 <0>        -0.1200 
      8 C8        -32.6815   28.2217   60.3466 C.3       1 <0>        -0.1200 
      9 C9        -31.5477   27.6117   61.1838 C.3       1 <0>        -0.1200 
     10 C10       -30.3710   27.1351   60.3087 C.3       1 <0>        -0.1200 
     11 C11       -33.1016   25.8203   67.5534 C.3       1 <0>         0.1450 
     12 C12       -27.9597   26.2379   60.1851 C.3       1 <0>        -0.1200 
     13 C13       -33.4189   25.0995   66.2192 C.3       1 <0>         0.0100 
     14 C14       -28.7816   24.7215   65.4450 C.3       1 <0>        -0.0600 
     15 C15       -29.1275   26.6654   61.1055 C.3       1 <0>        -0.0600 
     16 C16       -29.9419   24.9019   64.4274 C.3       1 <0>         0.1400 
     17 C17       -27.2871   27.4059   59.4652 C.2       1 <0>         0.5000 
     18 C18       -29.4831   25.5113   62.0509 C.2       1 <0>         0.5000 
     19 C19       -31.2083   25.4902   65.0932 C.2       1 <0>         0.5000 
     20 N1        -29.5221   25.8037   63.3580 N.am      1 <0>        -0.5000 
     21 N2        -27.4102   27.4241   58.1344 N.am      1 <0>        -0.2244 
     22 N3        -32.2315   24.6753   65.4527 N.am      1 <0>        -0.1400 
     23 O1        -34.2868   26.3025   68.1551 O.3       1 <0>        -0.6830 
     24 O2        -26.4772   28.2234   57.4531 O.3       1 <0>        -0.4375 
     25 O3        -26.6112   28.2234   60.0869 O.2       1 <0>        -0.5000 
     26 O4        -29.7340   24.3936   61.5995 O.2       1 <0>        -0.5000 
     27 O5        -31.2479   26.7079   65.2915 O.2       1 <0>        -0.5000 
     28 H1        -35.4095   28.3991   62.5277 H         1 <0>         0.0600 
     29 H2        -33.9711   27.4437   62.8292 H         1 <0>         0.0600 
     30 H3        -35.0100   27.0633   61.4543 H         1 <0>         0.0600 
     31 H4        -27.7364   26.6233   65.1750 H         1 <0>         0.0600 
     32 H5        -28.9407   26.6308   66.4659 H         1 <0>         0.0600 
     33 H6        -27.4096   25.8341   66.7128 H         1 <0>         0.0600 
     34 H7        -27.1833   24.2748   64.0167 H         1 <0>         0.0600 
     35 H8        -26.8925   23.6425   65.6355 H         1 <0>         0.0600 
     36 H9        -28.0504   22.8485   64.5830 H         1 <0>         0.0600 
     37 H10       -34.5011   23.1540   64.4122 H         1 <0>         0.0600 
     38 H11       -33.9754   21.8599   65.4855 H         1 <0>         0.0600 
     39 H12       -35.3048   24.0017   66.5028 H         1 <0>         0.0600 
     40 H13       -33.9265   23.3301   67.3659 H         1 <0>         0.0600 
     41 H14       -32.2511   23.2350   63.8778 H         1 <0>         0.0600 
     42 H15       -31.7223   22.6269   65.4472 H         1 <0>         0.0600 
     43 H16       -34.4930   29.3750   60.5058 H         1 <0>         0.0600 
     44 H17       -33.3821   29.6456   61.8228 H         1 <0>         0.0600 
     45 H18       -33.1110   27.4607   59.6942 H         1 <0>         0.0600 
     46 H19       -32.2514   28.9848   59.6958 H         1 <0>         0.0600 
     47 H20       -31.1898   28.3464   61.9022 H         1 <0>         0.0600 
     48 H21       -31.9432   26.7805   61.7674 H         1 <0>         0.0600 
     49 H22       -30.7135   26.3377   59.6482 H         1 <0>         0.0600 
     50 H23       -30.0789   27.9579   59.6582 H         1 <0>         0.0600 
     51 H24       -32.5831   25.1550   68.2470 H         1 <0>         0.0600 
     52 H25       -32.4585   26.6884   67.4105 H         1 <0>         0.0600 
     53 H26       -27.1876   25.7364   60.7737 H         1 <0>         0.0600 
     54 H27       -28.3047   25.4965   59.4585 H         1 <0>         0.0600 
     55 H28       -33.9872   25.7718   65.5714 H         1 <0>         0.0600 
     56 H29       -29.1932   24.2220   66.3224 H         1 <0>         0.0600 
     57 H30       -28.7829   27.5019   61.7176 H         1 <0>         0.0600 
     58 H31       -30.1590   23.9188   64.0075 H         1 <0>         0.0600 
     59 H32       -29.3489   26.7606   63.6365 H         1 <0>         0.3000 
     60 H33       -27.8557   26.7413   57.5278 H         1 <0>         0.3000 
     61 H34       -34.7749   26.7815   67.4977 H         1 <0>         0.4180 
     62 H35       -25.9979   28.6270   58.1637 H         1 <0>         0.3619 
@<TRIPOS>BOND
     1    1    7 1    
     2    1   28 1    
     3    1   29 1    
     4    1   30 1    
     5    2   14 1    
     6    2   31 1    
     7    2   32 1    
     8    2   33 1    
     9    3   14 1    
    10    3   34 1    
    11    3   35 1    
    12    3   36 1    
    13    4    5 1    
    14    4    6 1    
    15    4   37 1    
    16    4   38 1    
    17    5   13 1    
    18    5   39 1    
    19    5   40 1    
    20    6   22 1    
    21    6   41 1    
    22    6   42 1    
    23    7    8 1    
    24    7   43 1    
    25    7   44 1    
    26    8    9 1    
    27    8   45 1    
    28    8   46 1    
    29    9   10 1    
    30    9   47 1    
    31    9   48 1    
    32   10   15 1    
    33   10   49 1    
    34   10   50 1    
    35   11   13 1    
    36   11   23 1    
    37   11   51 1    
    38   11   52 1    
    39   12   15 1    
    40   12   17 1    
    41   12   53 1    
    42   12   54 1    
    43   13   22 1    
    44   13   55 1    
    45   14   16 1    
    46   14   56 1    
    47   15   18 1    
    48   15   57 1    
    49   16   19 1    
    50   16   20 1    
    51   16   58 1    
    52   17   21 am   BACKBONE|DICT|INTERRES
    53   17   25 2    
    54   18   20 am   BACKBONE|DICT|INTERRES
    55   18   26 2    
    56   19   22 am   BACKBONE|DICT|INTERRES
    57   19   27 2    
    58   20   59 1    
    59   21   24 1    
    60   21   60 1    
    61   23   61 1    
    62   24   62 1    
@<TRIPOS>SUBSTRUCTURE
     1 <0>         1 GROUP             0       ****    0 ROOT    
