@<TRIPOS>MOLECULE
A49_2_3FRJ
63   66    1
SMALL
USER_CHARGES


@<TRIPOS>ATOM
      1 C1         58.4930   20.7924   36.5346 C.3       1 <0>        -0.1800 
      2 C2         55.5427   22.7782   39.8205 C.ar      1 <0>        -0.1150 
      3 C3         54.7413   22.8433   37.5273 C.ar      1 <0>        -0.1150 
      4 C4         56.8408   22.4946   39.3656 C.ar      1 <0>        -0.1150 
      5 C5         56.0477   22.5637   37.0677 C.ar      1 <0>        -0.1150 
      6 C6         53.5548   20.0268   39.2304 C.3       1 <0>        -0.1200 
      7 C7         52.1234   19.6362   39.4444 C.3       1 <0>        -0.1200 
      8 C8         50.6435   22.4399   41.3525 C.3       1 <0>        -0.1200 
      9 C9         50.0063   23.5469   39.2056 C.3       1 <0>        -0.1200 
     10 C10        47.8283   25.5514   43.3743 C.3       1 <0>        -0.1200 
     11 C11        46.3871   25.8013   43.0372 C.3       1 <0>        -0.1200 
     12 C12        49.1575   22.4197   41.7609 C.3       1 <0>         0.1500 
     13 C13        48.5317   23.5094   39.6462 C.3       1 <0>         0.1500 
     14 C14        47.0257   23.7077   41.6018 C.3       1 <0>         0.1500 
     15 C15        54.4808   22.9379   38.9128 C.ar      1 <0>        -0.1150 
     16 C16        57.1094   22.3656   37.9829 C.ar      1 <0>        -0.1150 
     17 C17        52.4455   20.9333   38.7218 C.3       1 <0>        -0.0149 
     18 C18        50.7742   22.3575   39.8191 C.3       1 <0>         0.0100 
     19 C19        53.1013   23.1970   39.4521 C.2       1 <0>         0.6150 
     20 C20        46.4198   23.4832   44.0467 C.2       1 <0>         0.5000 
     21 C21        46.9416   24.3849   42.9735 C.3       1 <0>         0.0000 
     22 C22        58.5213   21.9970   37.5024 C.3       1 <0>         0.3800 
     23 C23        59.2751   23.1959   36.8674 C.3       1 <0>         0.6171 
     24 N1         47.3235   22.9397   44.8606 N.am      1 <0>        -0.7600 
     25 N2         48.4259   23.5496   41.1284 N.4       1 <0>        -0.1000 
     26 N3         52.1773   22.2015   39.3599 N.am      1 <0>        -0.1151 
     27 O1         59.3235   21.5318   38.5704 O.3       1 <0>        -0.6936 
     28 O2         52.8848   24.2727   40.0100 O.2       1 <0>        -0.5000 
     29 O3         45.2256   23.2449   44.1699 O.2       1 <0>        -0.5000 
     30 F1         58.9230   24.3675   37.3881 F         1 <0>        -0.2057 
     31 F2         59.0270   23.2407   35.5777 F         1 <0>        -0.2057 
     32 F3         60.5900   23.0468   36.9703 F         1 <0>        -0.2057 
     33 H1         57.9482   21.0115   35.6179 H         1 <0>         0.0600 
     34 H2         59.5015   20.4984   36.2410 H         1 <0>         0.0600 
     35 H3         58.0109   19.9196   36.9701 H         1 <0>         0.0600 
     36 H4         55.3564   22.8429   40.8825 H         1 <0>         0.1150 
     37 H5         53.9422   22.9705   36.8112 H         1 <0>         0.1150 
     38 H6         57.6196   22.3677   40.1030 H         1 <0>         0.1150 
     39 H7         56.2206   22.4848   36.0040 H         1 <0>         0.1150 
     40 H8         54.1220   19.4723   38.4872 H         1 <0>         0.0600 
     41 H9         54.1138   20.3186   40.1167 H         1 <0>         0.0600 
     42 H10        51.7495   19.6823   40.4645 H         1 <0>         0.0600 
     43 H11        51.7318   18.8155   38.8477 H         1 <0>         0.0600 
     44 H12        51.1736   21.6134   41.8181 H         1 <0>         0.0600 
     45 H13        51.1144   23.3481   41.7314 H         1 <0>         0.0600 
     46 H14        50.4393   24.5008   39.5066 H         1 <0>         0.0600 
     47 H15        50.0670   23.5178   38.1230 H         1 <0>         0.0600 
     48 H16        48.1150   25.6343   44.4203 H         1 <0>         0.0600 
     49 H17        48.5794   25.8955   42.6665 H         1 <0>         0.0600 
     50 H18        46.1685   26.3079   42.0992 H         1 <0>         0.0600 
     51 H19        45.7224   26.0612   43.8602 H         1 <0>         0.0600 
     52 H20        48.6965   21.4732   41.4711 H         1 <0>         0.0600 
     53 H21        49.0829   22.4852   42.8442 H         1 <0>         0.0600 
     54 H22        48.0408   22.6113   39.2673 H         1 <0>         0.0600 
     55 H23        48.0083   24.3623   39.2123 H         1 <0>         0.0600 
     56 H24        46.4648   24.3200   40.8940 H         1 <0>         0.0600 
     57 H25        46.5249   22.7366   41.6062 H         1 <0>         0.0600 
     58 H26        52.2852   20.9203   37.6454 H         1 <0>         0.0600 
     59 H27        50.2287   21.4666   39.5037 H         1 <0>         0.0600 
     60 H28        47.0124   22.2635   45.5452 H         1 <0>         0.3800 
     61 H29        48.2977   23.2086   44.8065 H         1 <0>         0.3800 
     62 H30        48.9049   24.3935   41.4092 H         1 <0>         0.2900 
     63 H31        59.6303   22.2680   39.0983 H         1 <0>         0.4286 
@<TRIPOS>BOND
     1    1   22 1    
     2    1   33 1    
     3    1   34 1    
     4    1   35 1    
     5    2    4 ar   
     6    2   15 ar   
     7    2   36 1    
     8    3    5 ar   
     9    3   15 ar   
    10    3   37 1    
    11    4   16 ar   
    12    4   38 1    
    13    5   16 ar   
    14    5   39 1    
    15    6    7 1    
    16    6   17 1    
    17    6   40 1    
    18    6   41 1    
    19    7   17 1    
    20    7   42 1    
    21    7   43 1    
    22    8   12 1    
    23    8   18 1    
    24    8   44 1    
    25    8   45 1    
    26    9   13 1    
    27    9   18 1    
    28    9   46 1    
    29    9   47 1    
    30   10   11 1    
    31   10   21 1    
    32   10   48 1    
    33   10   49 1    
    34   11   21 1    
    35   11   50 1    
    36   11   51 1    
    37   12   25 1    
    38   12   52 1    
    39   12   53 1    
    40   13   25 1    
    41   13   54 1    
    42   13   55 1    
    43   14   21 1    
    44   14   25 1    
    45   14   56 1    
    46   14   57 1    
    47   15   19 1    
    48   16   22 1    
    49   17   26 1    
    50   17   58 1    
    51   18   26 1    
    52   18   59 1    
    53   19   26 am   BACKBONE|DICT|INTERRES
    54   19   28 2    
    55   20   21 1    
    56   20   24 am   BACKBONE|DICT|INTERRES
    57   20   29 2    
    58   22   23 1    
    59   22   27 1    
    60   23   30 1    
    61   23   31 1    
    62   23   32 1    
    63   24   60 1    
    64   24   61 1    
    65   25   62 1    
    66   27   63 1    
@<TRIPOS>SUBSTRUCTURE
     1 <0>         1 GROUP             0       ****    0 ROOT    
@<TRIPOS>MOLECULE
A49_2_3FRJ
63   66    1
SMALL
USER_CHARGES


@<TRIPOS>ATOM
      1 C1         58.2124   20.6565   36.1952 C.3       1 <0>        -0.1800 
      2 C2         55.6230   22.4426   39.9787 C.ar      1 <0>        -0.1150 
      3 C3         54.5593   22.4130   37.7937 C.ar      1 <0>        -0.1150 
      4 C4         56.8701   22.1659   39.3804 C.ar      1 <0>        -0.1150 
      5 C5         55.8024   22.1321   37.2016 C.ar      1 <0>        -0.1150 
      6 C6         53.5246   19.7075   39.5419 C.3       1 <0>        -0.1200 
      7 C7         52.1234   19.3173   39.8988 C.3       1 <0>        -0.1200 
      8 C8         50.5301   22.4024   41.5805 C.3       1 <0>        -0.1200 
      9 C9         50.0264   23.2171   39.2718 C.3       1 <0>        -0.1200 
     10 C10        47.8560   25.5768   43.1599 C.3       1 <0>        -0.1200 
     11 C11        46.4789   26.0265   42.7643 C.3       1 <0>        -0.1200 
     12 C12        49.0292   22.4410   41.9099 C.3       1 <0>         0.1500 
     13 C13        48.5295   23.2626   39.6468 C.3       1 <0>         0.1500 
     14 C14        46.9359   23.7356   41.4951 C.3       1 <0>         0.1500 
     15 C15        54.4574   22.5564   39.1914 C.ar      1 <0>        -0.1150 
     16 C16        56.9752   21.9944   37.9811 C.ar      1 <0>        -0.1150 
     17 C17        52.3672   20.5882   39.1028 C.3       1 <0>        -0.0149 
     18 C18        50.7373   22.1155   40.0841 C.3       1 <0>         0.0100 
     19 C19        53.1246   22.8273   39.8341 C.2       1 <0>         0.6150 
     20 C20        46.2737   23.7340   43.9454 C.2       1 <0>         0.5000 
     21 C21        46.8068   24.5381   42.7960 C.3       1 <0>         0.0000 
     22 C22        58.3292   21.7373   37.2923 C.3       1 <0>         0.3800 
     23 C23        58.8915   23.0687   36.7558 C.3       1 <0>         0.6171 
     24 N1         45.0403   24.0423   44.3509 N.am      1 <0>        -0.7600 
     25 N2         48.3514   23.4901   41.1051 N.4       1 <0>        -0.1000 
     26 N3         52.1544   21.8775   39.7184 N.am      1 <0>        -0.1151 
     27 O1         59.3235   21.2438   38.1706 O.3       1 <0>        -0.6936 
     28 O2         52.9629   23.8952   40.4246 O.2       1 <0>        -0.5000 
     29 O3         46.9207   22.8408   44.4823 O.2       1 <0>        -0.5000 
     30 F1         59.3229   23.8046   37.7703 F         1 <0>        -0.2057 
     31 F2         57.9230   23.7538   36.1704 F         1 <0>        -0.2057 
     32 F3         59.8923   22.8869   35.8925 F         1 <0>        -0.2057 
     33 H1         57.5627   20.9493   35.3730 H         1 <0>         0.0600 
     34 H2         59.1844   20.4334   35.7542 H         1 <0>         0.0600 
     35 H3         57.8216   19.7209   36.5948 H         1 <0>         0.0600 
     36 H4         55.5611   22.5472   41.0516 H         1 <0>         0.1150 
     37 H5         53.6842   22.5094   37.1663 H         1 <0>         0.1150 
     38 H6         57.7417   22.0902   40.0116 H         1 <0>         0.1150 
     39 H7         55.8394   22.0427   36.1273 H         1 <0>         0.1150 
     40 H8         54.0300   19.1495   38.7579 H         1 <0>         0.0600 
     41 H9         54.1573   20.0206   40.3694 H         1 <0>         0.0600 
     42 H10        51.8300   19.4094   40.9420 H         1 <0>         0.0600 
     43 H11        51.7240   18.4518   39.3768 H         1 <0>         0.0600 
     44 H12        51.0328   21.6433   42.1712 H         1 <0>         0.0600 
     45 H13        50.9793   23.3533   41.8675 H         1 <0>         0.0600 
     46 H14        50.4831   24.1910   39.4533 H         1 <0>         0.0600 
     47 H15        50.1235   23.0265   38.2045 H         1 <0>         0.0600 
     48 H16        48.1363   25.6432   44.2092 H         1 <0>         0.0600 
     49 H17        48.6651   25.7830   42.4624 H         1 <0>         0.0600 
     50 H18        46.3573   26.4923   41.7884 H         1 <0>         0.0600 
     51 H19        45.8690   26.4611   43.5545 H         1 <0>         0.0600 
     52 H20        48.5654   21.4692   41.7288 H         1 <0>         0.0600 
     53 H21        48.9194   22.6536   42.9701 H         1 <0>         0.0600 
     54 H22        48.0382   22.3281   39.3688 H         1 <0>         0.0600 
     55 H23        48.0426   24.0575   39.0812 H         1 <0>         0.0600 
     56 H24        46.4321   24.3006   40.7098 H         1 <0>         0.0600 
     57 H25        46.4032   22.7840   41.5637 H         1 <0>         0.0600 
     58 H26        52.1121   20.5363   38.0462 H         1 <0>         0.0600 
     59 H27        50.1899   21.1969   39.8704 H         1 <0>         0.0600 
     60 H28        44.6327   23.5403   45.1267 H         1 <0>         0.3800 
     61 H29        44.5241   24.7891   43.9116 H         1 <0>         0.3800 
     62 H30        48.8383   24.3524   41.3045 H         1 <0>         0.2900 
     63 H31        59.6009   21.9579   38.7350 H         1 <0>         0.4286 
@<TRIPOS>BOND
     1    1   22 1    
     2    1   33 1    
     3    1   34 1    
     4    1   35 1    
     5    2    4 ar   
     6    2   15 ar   
     7    2   36 1    
     8    3    5 ar   
     9    3   15 ar   
    10    3   37 1    
    11    4   16 ar   
    12    4   38 1    
    13    5   16 ar   
    14    5   39 1    
    15    6    7 1    
    16    6   17 1    
    17    6   40 1    
    18    6   41 1    
    19    7   17 1    
    20    7   42 1    
    21    7   43 1    
    22    8   12 1    
    23    8   18 1    
    24    8   44 1    
    25    8   45 1    
    26    9   13 1    
    27    9   18 1    
    28    9   46 1    
    29    9   47 1    
    30   10   11 1    
    31   10   21 1    
    32   10   48 1    
    33   10   49 1    
    34   11   21 1    
    35   11   50 1    
    36   11   51 1    
    37   12   25 1    
    38   12   52 1    
    39   12   53 1    
    40   13   25 1    
    41   13   54 1    
    42   13   55 1    
    43   14   21 1    
    44   14   25 1    
    45   14   56 1    
    46   14   57 1    
    47   15   19 1    
    48   16   22 1    
    49   17   26 1    
    50   17   58 1    
    51   18   26 1    
    52   18   59 1    
    53   19   26 am   BACKBONE|DICT|INTERRES
    54   19   28 2    
    55   20   21 1    
    56   20   24 am   BACKBONE|DICT|INTERRES
    57   20   29 2    
    58   22   23 1    
    59   22   27 1    
    60   23   30 1    
    61   23   31 1    
    62   23   32 1    
    63   24   60 1    
    64   24   61 1    
    65   25   62 1    
    66   27   63 1    
@<TRIPOS>SUBSTRUCTURE
     1 <0>         1 GROUP             0       ****    0 ROOT    
@<TRIPOS>MOLECULE
A49_2_3FRJ
63   66    1
SMALL
USER_CHARGES


@<TRIPOS>ATOM
      1 C1         57.8893   20.7586   36.5686 C.3       1 <0>        -0.1800 
      2 C2         55.1889   22.7084   40.1580 C.ar      1 <0>        -0.1150 
      3 C3         54.1690   22.5625   37.9531 C.ar      1 <0>        -0.1150 
      4 C4         56.4514   22.4419   39.5957 C.ar      1 <0>        -0.1150 
      5 C5         55.4283   22.2837   37.3944 C.ar      1 <0>        -0.1150 
      6 C6         53.3168   19.9344   40.2393 C.3       1 <0>        -0.1200 
      7 C7         51.9150   19.4290   40.3828 C.3       1 <0>        -0.1200 
      8 C8         50.1540   22.4266   41.7727 C.3       1 <0>        -0.1200 
      9 C9         49.6347   23.2106   39.4369 C.3       1 <0>        -0.1200 
     10 C10        47.2297   26.0553   42.8121 C.3       1 <0>        -0.1200 
     11 C11        45.7467   26.1071   42.5759 C.3       1 <0>        -0.1200 
     12 C12        48.6530   22.4595   42.0954 C.3       1 <0>         0.1500 
     13 C13        48.1442   23.2580   39.8331 C.3       1 <0>         0.1500 
     14 C14        46.5652   23.7474   41.6900 C.3       1 <0>         0.1500 
     15 C15        54.0433   22.7673   39.3418 C.ar      1 <0>        -0.1150 
     16 C16        56.5867   22.2191   38.2047 C.ar      1 <0>        -0.1150 
     17 C17        52.1823   20.6477   39.5161 C.3       1 <0>        -0.0149 
     18 C18        50.3837   22.1544   40.2784 C.3       1 <0>         0.0100 
     19 C19        52.6984   23.0126   39.9572 C.2       1 <0>         0.6150 
     20 C20        46.1971   24.1486   44.1770 C.2       1 <0>         0.5000 
     21 C21        46.4233   24.7659   42.8284 C.3       1 <0>         0.0000 
     22 C22        57.9597   21.9331   37.5746 C.3       1 <0>         0.3800 
     23 C23        58.5229   23.1756   36.8749 C.3       1 <0>         0.6171 
     24 N1         44.9234   24.0460   44.5607 N.am      1 <0>        -0.7600 
     25 N2         47.9785   23.5086   41.2915 N.4       1 <0>        -0.1000 
     26 N3         51.8146   21.9796   39.9462 N.am      1 <0>        -0.1151 
     27 O1         58.9259   21.6246   38.5522 O.3       1 <0>        -0.6936 
     28 O2         52.4532   24.1225   40.4303 O.2       1 <0>        -0.5000 
     29 O3         47.1141   23.7710   44.8987 O.2       1 <0>        -0.5000 
     30 F1         57.5460   23.7088   36.1701 F         1 <0>        -0.2057 
     31 F2         59.5493   22.8936   36.0701 F         1 <0>        -0.2057 
     32 F3         58.9196   24.0646   37.7703 F         1 <0>        -0.2057 
     33 H1         57.3265   21.0308   35.6768 H         1 <0>         0.0600 
     34 H2         58.8833   20.4654   36.2301 H         1 <0>         0.0600 
     35 H3         57.4125   19.8677   36.9702 H         1 <0>         0.0600 
     36 H4         55.0966   22.8435   41.2251 H         1 <0>         0.1150 
     37 H5         53.3012   22.6047   37.3108 H         1 <0>         0.1150 
     38 H6         57.3078   22.4048   40.2529 H         1 <0>         0.1150 
     39 H7         55.4927   22.1304   36.3273 H         1 <0>         0.1150 
     40 H8         54.0068   19.3524   39.6320 H         1 <0>         0.0600 
     41 H9         53.7534   20.3955   41.1223 H         1 <0>         0.0600 
     42 H10        51.4267   19.5658   41.3444 H         1 <0>         0.0600 
     43 H11        51.7229   18.4773   39.8945 H         1 <0>         0.0600 
     44 H12        50.6331   21.6481   42.3589 H         1 <0>         0.0600 
     45 H13        50.6120   23.3683   42.0767 H         1 <0>         0.0600 
     46 H14        50.0677   24.2032   39.5646 H         1 <0>         0.0600 
     47 H15        49.7246   22.9642   38.3788 H         1 <0>         0.0600 
     48 H16        47.5943   26.4405   43.7630 H         1 <0>         0.0600 
     49 H17        47.8806   26.2475   41.9616 H         1 <0>         0.0600 
     50 H18        45.3992   26.3167   41.5655 H         1 <0>         0.0600 
     51 H19        45.1418   26.5484   43.3667 H         1 <0>         0.0600 
     52 H20        48.1982   21.4872   41.8964 H         1 <0>         0.0600 
     53 H21        48.5256   22.6528   43.1577 H         1 <0>         0.0600 
     54 H22        47.6565   22.3182   39.5694 H         1 <0>         0.0600 
     55 H23        47.6507   24.0429   39.2603 H         1 <0>         0.0600 
     56 H24        46.0058   24.1332   40.8379 H         1 <0>         0.0600 
     57 H25        46.0864   22.8007   41.9495 H         1 <0>         0.0600 
     58 H26        52.1082   20.4719   38.4440 H         1 <0>         0.0600 
     59 H27        49.8861   21.2182   40.0565 H         1 <0>         0.0600 
     60 H28        44.7119   23.6722   45.4749 H         1 <0>         0.3800 
     61 H29        44.1754   24.3833   43.9747 H         1 <0>         0.3800 
     62 H30        48.4679   24.3724   41.4788 H         1 <0>         0.2900 
     63 H31        59.1950   22.4209   38.9999 H         1 <0>         0.4286 
@<TRIPOS>BOND
     1    1   22 1    
     2    1   33 1    
     3    1   34 1    
     4    1   35 1    
     5    2    4 ar   
     6    2   15 ar   
     7    2   36 1    
     8    3    5 ar   
     9    3   15 ar   
    10    3   37 1    
    11    4   16 ar   
    12    4   38 1    
    13    5   16 ar   
    14    5   39 1    
    15    6    7 1    
    16    6   17 1    
    17    6   40 1    
    18    6   41 1    
    19    7   17 1    
    20    7   42 1    
    21    7   43 1    
    22    8   12 1    
    23    8   18 1    
    24    8   44 1    
    25    8   45 1    
    26    9   13 1    
    27    9   18 1    
    28    9   46 1    
    29    9   47 1    
    30   10   11 1    
    31   10   21 1    
    32   10   48 1    
    33   10   49 1    
    34   11   21 1    
    35   11   50 1    
    36   11   51 1    
    37   12   25 1    
    38   12   52 1    
    39   12   53 1    
    40   13   25 1    
    41   13   54 1    
    42   13   55 1    
    43   14   21 1    
    44   14   25 1    
    45   14   56 1    
    46   14   57 1    
    47   15   19 1    
    48   16   22 1    
    49   17   26 1    
    50   17   58 1    
    51   18   26 1    
    52   18   59 1    
    53   19   26 am   BACKBONE|DICT|INTERRES
    54   19   28 2    
    55   20   21 1    
    56   20   24 am   BACKBONE|DICT|INTERRES
    57   20   29 2    
    58   22   23 1    
    59   22   27 1    
    60   23   30 1    
    61   23   31 1    
    62   23   32 1    
    63   24   60 1    
    64   24   61 1    
    65   25   62 1    
    66   27   63 1    
@<TRIPOS>SUBSTRUCTURE
     1 <0>         1 GROUP             0       ****    0 ROOT    
@<TRIPOS>MOLECULE
A49_2_3FRJ
63   66    1
SMALL
USER_CHARGES


@<TRIPOS>ATOM
      1 C1         58.0176   20.7774   36.5700 C.3       1 <0>        -0.1800 
      2 C2         54.9445   22.0426   40.1229 C.ar      1 <0>        -0.1150 
      3 C3         54.0799   21.9418   37.8555 C.ar      1 <0>        -0.1150 
      4 C4         56.2691   22.0435   39.6204 C.ar      1 <0>        -0.1150 
      5 C5         55.3931   21.9705   37.3667 C.ar      1 <0>        -0.1150 
      6 C6         53.0347   24.9166   38.7127 C.3       1 <0>        -0.1200 
      7 C7         51.5796   25.2590   38.5970 C.3       1 <0>        -0.1200 
      8 C8         50.1854   22.6190   41.7704 C.3       1 <0>        -0.1200 
      9 C9         49.1516   23.7924   39.8016 C.3       1 <0>        -0.1200 
     10 C10        46.9231   23.6403   45.1787 C.3       1 <0>        -0.1200 
     11 C11        47.5454   24.8434   44.5259 C.3       1 <0>        -0.1200 
     12 C12        48.7690   22.3289   42.2877 C.3       1 <0>         0.1500 
     13 C13        47.7594   23.5042   40.4077 C.3       1 <0>         0.1500 
     14 C14        46.5143   23.3060   42.5677 C.3       1 <0>         0.1500 
     15 C15        53.8412   21.9932   39.2382 C.ar      1 <0>        -0.1150 
     16 C16        56.5107   21.9921   38.2252 C.ar      1 <0>        -0.1150 
     17 C17        52.0388   24.3312   39.7083 C.3       1 <0>        -0.0149 
     18 C18        50.2060   22.7396   40.2337 C.3       1 <0>         0.0100 
     19 C19        52.4310   21.8648   39.7345 C.2       1 <0>         0.6150 
     20 C20        45.1199   24.9534   43.8970 C.2       1 <0>         0.5000 
     21 C21        46.3788   24.1508   43.8516 C.3       1 <0>         0.0000 
     22 C22        57.9259   21.9182   37.6121 C.3       1 <0>         0.3800 
     23 C23        58.3380   23.2495   36.9595 C.3       1 <0>         0.6171 
     24 N1         44.1240   24.3804   44.5704 N.am      1 <0>        -0.7600 
     25 N2         47.8365   23.4125   41.8909 N.4       1 <0>        -0.1000 
     26 N3         51.5952   22.9477   39.7271 N.am      1 <0>        -0.1151 
     27 O1         58.9235   21.6434   38.5704 O.3       1 <0>        -0.6936 
     28 O2         52.0627   20.7386   40.0743 O.2       1 <0>        -0.5000 
     29 O3         45.0026   26.0439   43.3455 O.2       1 <0>        -0.5000 
     30 F1         57.3596   23.6434   36.1611 F         1 <0>        -0.2057 
     31 F2         59.4588   23.1317   36.2443 F         1 <0>        -0.2057 
     32 F3         58.5231   24.1794   37.8854 F         1 <0>        -0.2057 
     33 H1         57.4132   20.9780   35.6872 H         1 <0>         0.0600 
     34 H2         59.0411   20.6365   36.2205 H         1 <0>         0.0600 
     35 H3         57.6800   19.8231   36.9702 H         1 <0>         0.0600 
     36 H4         54.7806   22.0512   41.1908 H         1 <0>         0.1150 
     37 H5         53.2555   21.8801   37.1585 H         1 <0>         0.1150 
     38 H6         57.0941   22.0586   40.3172 H         1 <0>         0.1150 
     39 H7         55.5297   21.9439   36.2965 H         1 <0>         0.1150 
     40 H8         53.7041   25.6932   39.0774 H         1 <0>         0.0600 
     41 H9         53.4133   24.3581   37.8654 H         1 <0>         0.0600 
     42 H10        51.0443   24.8282   37.7529 H         1 <0>         0.0600 
     43 H11        51.2776   26.2672   38.8724 H         1 <0>         0.0600 
     44 H12        50.8522   21.8271   42.1092 H         1 <0>         0.0600 
     45 H13        50.5599   23.5421   42.2143 H         1 <0>         0.0600 
     46 H14        49.4498   24.7901   40.1248 H         1 <0>         0.0600 
     47 H15        49.0738   23.8196   38.7141 H         1 <0>         0.0600 
     48 H16        46.3514   23.8228   46.0872 H         1 <0>         0.0600 
     49 H17        47.4762   22.7037   45.1731 H         1 <0>         0.0600 
     50 H18        48.5233   24.7522   44.0712 H         1 <0>         0.0600 
     51 H19        47.3543   25.8041   45.0020 H         1 <0>         0.0600 
     52 H20        48.4134   21.3708   41.9023 H         1 <0>         0.0600 
     53 H21        48.7952   22.2346   43.3712 H         1 <0>         0.0600 
     54 H22        47.3517   22.5762   40.0020 H         1 <0>         0.0600 
     55 H23        47.0730   24.3028   40.1217 H         1 <0>         0.0600 
     56 H24        45.7378   23.6103   41.8638 H         1 <0>         0.0600 
     57 H25        46.2891   22.2634   42.7985 H         1 <0>         0.0600 
     58 H26        52.0922   24.7852   40.6962 H         1 <0>         0.0600 
     59 H27        49.8419   21.7953   39.8209 H         1 <0>         0.0600 
     60 H28        43.2351   24.8461   44.7180 H         1 <0>         0.3800 
     61 H29        44.2724   23.4909   45.0198 H         1 <0>         0.3800 
     62 H30        48.2379   24.2849   42.2052 H         1 <0>         0.2900 
     63 H31        59.1451   22.4389   39.0443 H         1 <0>         0.4286 
@<TRIPOS>BOND
     1    1   22 1    
     2    1   33 1    
     3    1   34 1    
     4    1   35 1    
     5    2    4 ar   
     6    2   15 ar   
     7    2   36 1    
     8    3    5 ar   
     9    3   15 ar   
    10    3   37 1    
    11    4   16 ar   
    12    4   38 1    
    13    5   16 ar   
    14    5   39 1    
    15    6    7 1    
    16    6   17 1    
    17    6   40 1    
    18    6   41 1    
    19    7   17 1    
    20    7   42 1    
    21    7   43 1    
    22    8   12 1    
    23    8   18 1    
    24    8   44 1    
    25    8   45 1    
    26    9   13 1    
    27    9   18 1    
    28    9   46 1    
    29    9   47 1    
    30   10   11 1    
    31   10   21 1    
    32   10   48 1    
    33   10   49 1    
    34   11   21 1    
    35   11   50 1    
    36   11   51 1    
    37   12   25 1    
    38   12   52 1    
    39   12   53 1    
    40   13   25 1    
    41   13   54 1    
    42   13   55 1    
    43   14   21 1    
    44   14   25 1    
    45   14   56 1    
    46   14   57 1    
    47   15   19 1    
    48   16   22 1    
    49   17   26 1    
    50   17   58 1    
    51   18   26 1    
    52   18   59 1    
    53   19   26 am   BACKBONE|DICT|INTERRES
    54   19   28 2    
    55   20   21 1    
    56   20   24 am   BACKBONE|DICT|INTERRES
    57   20   29 2    
    58   22   23 1    
    59   22   27 1    
    60   23   30 1    
    61   23   31 1    
    62   23   32 1    
    63   24   60 1    
    64   24   61 1    
    65   25   62 1    
    66   27   63 1    
@<TRIPOS>SUBSTRUCTURE
     1 <0>         1 GROUP             0       ****    0 ROOT    
@<TRIPOS>MOLECULE
A49_2_3FRJ
63   66    1
SMALL
USER_CHARGES


@<TRIPOS>ATOM
      1 C1         51.4942   29.1484   39.2970 C.3       1 <0>        -0.1800 
      2 C2         51.5767   24.8288   39.8396 C.ar      1 <0>        -0.1150 
      3 C3         52.8893   25.1023   41.8735 C.ar      1 <0>        -0.1150 
      4 C4         51.4494   26.2290   39.7366 C.ar      1 <0>        -0.1150 
      5 C5         52.7777   26.4972   41.7585 C.ar      1 <0>        -0.1150 
      6 C6         51.7288   19.7823   40.5704 C.3       1 <0>        -0.1200 
      7 C7         52.5239   19.6836   39.2963 C.3       1 <0>        -0.1200 
      8 C8         55.5196   21.9040   39.7256 C.3       1 <0>        -0.1200 
      9 C9         53.8294   22.4917   37.9545 C.3       1 <0>        -0.1200 
     10 C10        59.8824   23.0642   35.8696 C.3       1 <0>        -0.1200 
     11 C11        59.8257   23.0609   37.3697 C.3       1 <0>        -0.1200 
     12 C12        56.6067   22.6069   38.8899 C.3       1 <0>         0.1500 
     13 C13        54.9459   23.1673   37.1427 C.3       1 <0>         0.1500 
     14 C14        57.3440   23.1390   36.5713 C.3       1 <0>         0.1500 
     15 C15        52.2796   24.2613   40.9226 C.ar      1 <0>        -0.1150 
     16 C16        52.0370   27.0779   40.7045 C.ar      1 <0>        -0.1150 
     17 C17        53.0327   20.5543   40.4282 C.3       1 <0>        -0.0149 
     18 C18        54.1412   22.5457   39.4606 C.3       1 <0>         0.0100 
     19 C19        52.3033   22.7794   41.1316 C.2       1 <0>         0.6150 
     20 C20        58.6284   20.9060   36.5588 C.2       1 <0>         0.5000 
     21 C21        58.6993   22.4180   36.5869 C.3       1 <0>         0.0000 
     22 C22        51.8571   28.6011   40.6844 C.3       1 <0>         0.3800 
     23 C23        50.7874   29.0343   41.7286 C.3       1 <0>         0.6171 
     24 N1         59.7833   20.2370   36.5448 N.am      1 <0>        -0.7600 
     25 N2         56.2773   22.5688   37.4377 N.4       1 <0>        -0.1000 
     26 N3         53.0356   21.9952   40.2896 N.am      1 <0>        -0.1151 
     27 O1         53.0858   29.2434   40.9681 O.3       1 <0>        -0.6936 
     28 O2         51.6264   22.3414   42.0596 O.2       1 <0>        -0.5000 
     29 O3         57.5644   20.2943   36.5702 O.2       1 <0>        -0.5000 
     30 F1         49.5915   28.5622   41.3699 F         1 <0>        -0.2057 
     31 F2         50.7001   30.3634   41.7917 F         1 <0>        -0.2057 
     32 F3         51.0550   28.5650   42.9451 F         1 <0>        -0.2057 
     33 H1         50.5102   28.8160   38.9704 H         1 <0>         0.0600 
     34 H2         51.4716   30.2396   39.2864 H         1 <0>         0.0600 
     35 H3         52.2281   28.8299   38.5604 H         1 <0>         0.0600 
     36 H4         51.0929   24.1936   39.1115 H         1 <0>         0.1150 
     37 H5         53.4245   24.6820   42.7128 H         1 <0>         0.1150 
     38 H6         50.8712   26.6274   38.9179 H         1 <0>         0.1150 
     39 H7         53.2316   27.1247   42.5130 H         1 <0>         0.1150 
     40 H8         51.7270   18.9130   41.2253 H         1 <0>         0.0600 
     41 H9         50.7880   20.3246   40.5193 H         1 <0>         0.0600 
     42 H10        52.0769   20.1517   38.4229 H         1 <0>         0.0600 
     43 H11        53.0485   18.7501   39.1052 H         1 <0>         0.0600 
     44 H12        55.7695   21.9733   40.7843 H         1 <0>         0.0600 
     45 H13        55.5119   20.8431   39.4730 H         1 <0>         0.0600 
     46 H14        53.7330   21.4603   37.6175 H         1 <0>         0.0600 
     47 H15        52.8771   22.9793   37.7451 H         1 <0>         0.0600 
     48 H16        60.6400   22.4436   35.3979 H         1 <0>         0.0600 
     49 H17        59.7234   24.0178   35.3717 H         1 <0>         0.0600 
     50 H18        59.6315   24.0202   37.8414 H         1 <0>         0.0600 
     51 H19        60.5232   22.4234   37.9052 H         1 <0>         0.0600 
     52 H20        56.7235   23.6426   39.2211 H         1 <0>         0.0600 
     53 H21        57.5619   22.1150   39.0762 H         1 <0>         0.0600 
     54 H22        54.9624   24.2356   37.3573 H         1 <0>         0.0600 
     55 H23        54.7265   23.0638   36.0789 H         1 <0>         0.0600 
     56 H24        56.9907   23.1853   35.5411 H         1 <0>         0.0600 
     57 H25        57.5108   24.1680   36.8817 H         1 <0>         0.0600 
     58 H26        53.8492   20.1450   41.0206 H         1 <0>         0.0600 
     59 H27        54.2915   23.5980   39.6987 H         1 <0>         0.0600 
     60 H28        59.7659   19.2272   36.5010 H         1 <0>         0.3800 
     61 H29        60.6595   20.7360   36.5415 H         1 <0>         0.3800 
     62 H30        56.2281   21.5890   37.1802 H         1 <0>         0.2900 
     63 H31        52.9238   30.1769   41.0740 H         1 <0>         0.4286 
@<TRIPOS>BOND
     1    1   22 1    
     2    1   33 1    
     3    1   34 1    
     4    1   35 1    
     5    2    4 ar   
     6    2   15 ar   
     7    2   36 1    
     8    3    5 ar   
     9    3   15 ar   
    10    3   37 1    
    11    4   16 ar   
    12    4   38 1    
    13    5   16 ar   
    14    5   39 1    
    15    6    7 1    
    16    6   17 1    
    17    6   40 1    
    18    6   41 1    
    19    7   17 1    
    20    7   42 1    
    21    7   43 1    
    22    8   12 1    
    23    8   18 1    
    24    8   44 1    
    25    8   45 1    
    26    9   13 1    
    27    9   18 1    
    28    9   46 1    
    29    9   47 1    
    30   10   11 1    
    31   10   21 1    
    32   10   48 1    
    33   10   49 1    
    34   11   21 1    
    35   11   50 1    
    36   11   51 1    
    37   12   25 1    
    38   12   52 1    
    39   12   53 1    
    40   13   25 1    
    41   13   54 1    
    42   13   55 1    
    43   14   21 1    
    44   14   25 1    
    45   14   56 1    
    46   14   57 1    
    47   15   19 1    
    48   16   22 1    
    49   17   26 1    
    50   17   58 1    
    51   18   26 1    
    52   18   59 1    
    53   19   26 am   BACKBONE|DICT|INTERRES
    54   19   28 2    
    55   20   21 1    
    56   20   24 am   BACKBONE|DICT|INTERRES
    57   20   29 2    
    58   22   23 1    
    59   22   27 1    
    60   23   30 1    
    61   23   31 1    
    62   23   32 1    
    63   24   60 1    
    64   24   61 1    
    65   25   62 1    
    66   27   63 1    
@<TRIPOS>SUBSTRUCTURE
     1 <0>         1 GROUP             0       ****    0 ROOT    
@<TRIPOS>MOLECULE
A49_2_3FRJ
63   66    1
SMALL
USER_CHARGES


@<TRIPOS>ATOM
      1 C1         58.3915   20.5630   36.5431 C.3       1 <0>        -0.1800 
      2 C2         55.5400   22.5255   40.0118 C.ar      1 <0>        -0.1150 
      3 C3         54.6094   22.4299   37.7705 C.ar      1 <0>        -0.1150 
      4 C4         56.8214   22.2551   39.4950 C.ar      1 <0>        -0.1150 
      5 C5         55.8933   22.1522   37.2550 C.ar      1 <0>        -0.1150 
      6 C6         53.5126   19.7499   39.5196 C.3       1 <0>        -0.1200 
      7 C7         52.1232   19.3607   39.9172 C.3       1 <0>        -0.1200 
      8 C8         50.5287   22.3908   41.5952 C.3       1 <0>        -0.1200 
      9 C9         49.9591   23.2401   39.3223 C.3       1 <0>        -0.1200 
     10 C10        47.5045   25.8325   42.7850 C.3       1 <0>        -0.1200 
     11 C11        46.0458   25.9253   42.4463 C.3       1 <0>        -0.1200 
     12 C12        49.0315   22.3721   41.9562 C.3       1 <0>         0.1500 
     13 C13        48.4682   23.2431   39.7184 C.3       1 <0>         0.1500 
     14 C14        46.8686   23.5562   41.5891 C.3       1 <0>         0.1500 
     15 C15        54.4225   22.6075   39.1584 C.ar      1 <0>        -0.1150 
     16 C16        57.0157   22.0458   38.1099 C.ar      1 <0>        -0.1150 
     17 C17        52.3399   20.6139   39.0857 C.3       1 <0>        -0.0149 
     18 C18        50.7051   22.1296   40.0880 C.3       1 <0>         0.0100 
     19 C19        53.0627   22.8895   39.7399 C.2       1 <0>         0.6150 
     20 C20        46.3653   23.9226   44.0517 C.2       1 <0>         0.5000 
     21 C21        46.6702   24.5628   42.7284 C.3       1 <0>         0.0000 
     22 C22        58.4163   21.7383   37.5463 C.3       1 <0>         0.3800 
     23 C23        59.0298   22.9903   36.8882 C.3       1 <0>         0.6171 
     24 N1         45.1070   24.0433   44.4809 N.am      1 <0>        -0.7600 
     25 N2         48.2947   23.4103   41.1875 N.4       1 <0>        -0.1000 
     26 N3         52.1150   21.9130   39.6774 N.am      1 <0>        -0.1151 
     27 O1         59.3234   21.3315   38.5560 O.3       1 <0>        -0.6936 
     28 O2         52.8696   23.9841   40.2709 O.2       1 <0>        -0.5000 
     29 O3         47.2080   23.3164   44.7065 O.2       1 <0>        -0.5000 
     30 F1         58.9215   24.0441   37.6935 F         1 <0>        -0.2057 
     31 F2         58.3630   23.2432   35.7727 F         1 <0>        -0.2057 
     32 F3         60.3122   22.8058   36.5665 F         1 <0>        -0.2057 
     33 H1         57.8182   20.7990   35.6471 H         1 <0>         0.0600 
     34 H2         59.3984   20.3070   36.2107 H         1 <0>         0.0600 
     35 H3         57.9491   19.6640   36.9668 H         1 <0>         0.0600 
     36 H4         55.4130   22.6628   41.0751 H         1 <0>         0.1150 
     37 H5         53.7695   22.4971   37.0933 H         1 <0>         0.1150 
     38 H6         57.6520   22.2092   40.1823 H         1 <0>         0.1150 
     39 H7         56.0018   22.0218   36.1888 H         1 <0>         0.1150 
     40 H8         53.9972   19.1596   38.7454 H         1 <0>         0.0600 
     41 H9         54.1632   20.0823   40.3256 H         1 <0>         0.0600 
     42 H10        51.8558   19.4739   40.9656 H         1 <0>         0.0600 
     43 H11        51.7236   18.4770   39.4271 H         1 <0>         0.0600 
     44 H12        51.0668   21.6431   42.1704 H         1 <0>         0.0600 
     45 H13        50.9580   23.3519   41.8801 H         1 <0>         0.0600 
     46 H14        50.3929   24.2202   39.5260 H         1 <0>         0.0600 
     47 H15        50.0481   23.0823   38.2507 H         1 <0>         0.0600 
     48 H16        47.8072   26.1925   43.7656 H         1 <0>         0.0600 
     49 H17        48.2148   26.0327   41.9860 H         1 <0>         0.0600 
     50 H18        45.7770   26.1527   41.4167 H         1 <0>         0.0600 
     51 H19        45.4039   26.3857   43.1959 H         1 <0>         0.0600 
     52 H20        48.6041   21.3886   41.7521 H         1 <0>         0.0600 
     53 H21        48.9203   22.5476   43.0243 H         1 <0>         0.0600 
     54 H22        47.9913   22.3134   39.4021 H         1 <0>         0.0600 
     55 H23        47.9626   24.0523   39.1907 H         1 <0>         0.0600 
     56 H24        46.2772   23.9034   40.7408 H         1 <0>         0.0600 
     57 H25        46.4499   22.5813   41.8490 H         1 <0>         0.0600 
     58 H26        52.0591   20.5329   38.0373 H         1 <0>         0.0600 
     59 H27        50.1615   21.2099   39.8683 H         1 <0>         0.0600 
     60 H28        44.8450   23.6412   45.3684 H         1 <0>         0.3800 
     61 H29        44.4221   24.5542   43.9438 H         1 <0>         0.3800 
     62 H30        48.7336   24.2918   41.4140 H         1 <0>         0.2900 
     63 H31        59.5899   22.0914   39.0684 H         1 <0>         0.4286 
@<TRIPOS>BOND
     1    1   22 1    
     2    1   33 1    
     3    1   34 1    
     4    1   35 1    
     5    2    4 ar   
     6    2   15 ar   
     7    2   36 1    
     8    3    5 ar   
     9    3   15 ar   
    10    3   37 1    
    11    4   16 ar   
    12    4   38 1    
    13    5   16 ar   
    14    5   39 1    
    15    6    7 1    
    16    6   17 1    
    17    6   40 1    
    18    6   41 1    
    19    7   17 1    
    20    7   42 1    
    21    7   43 1    
    22    8   12 1    
    23    8   18 1    
    24    8   44 1    
    25    8   45 1    
    26    9   13 1    
    27    9   18 1    
    28    9   46 1    
    29    9   47 1    
    30   10   11 1    
    31   10   21 1    
    32   10   48 1    
    33   10   49 1    
    34   11   21 1    
    35   11   50 1    
    36   11   51 1    
    37   12   25 1    
    38   12   52 1    
    39   12   53 1    
    40   13   25 1    
    41   13   54 1    
    42   13   55 1    
    43   14   21 1    
    44   14   25 1    
    45   14   56 1    
    46   14   57 1    
    47   15   19 1    
    48   16   22 1    
    49   17   26 1    
    50   17   58 1    
    51   18   26 1    
    52   18   59 1    
    53   19   26 am   BACKBONE|DICT|INTERRES
    54   19   28 2    
    55   20   21 1    
    56   20   24 am   BACKBONE|DICT|INTERRES
    57   20   29 2    
    58   22   23 1    
    59   22   27 1    
    60   23   30 1    
    61   23   31 1    
    62   23   32 1    
    63   24   60 1    
    64   24   61 1    
    65   25   62 1    
    66   27   63 1    
@<TRIPOS>SUBSTRUCTURE
     1 <0>         1 GROUP             0       ****    0 ROOT    
@<TRIPOS>MOLECULE
A49_2_3FRJ
63   66    1
SMALL
USER_CHARGES


@<TRIPOS>ATOM
      1 C1         51.5114   29.1356   39.3053 C.3       1 <0>        -0.1800 
      2 C2         51.6133   24.8051   39.8133 C.ar      1 <0>        -0.1150 
      3 C3         52.9571   25.0666   41.8265 C.ar      1 <0>        -0.1150 
      4 C4         51.4888   26.2065   39.7171 C.ar      1 <0>        -0.1150 
      5 C5         52.8501   26.4623   41.7181 C.ar      1 <0>        -0.1150 
      6 C6         51.7470   19.7364   40.5702 C.3       1 <0>        -0.1200 
      7 C7         52.5257   19.6361   39.2878 C.3       1 <0>        -0.1200 
      8 C8         55.5209   21.7943   39.6465 C.3       1 <0>        -0.1200 
      9 C9         53.8088   22.4650   37.9273 C.3       1 <0>        -0.1200 
     10 C10        59.8660   23.0181   35.8777 C.3       1 <0>        -0.1200 
     11 C11        59.7484   22.9173   37.3704 C.3       1 <0>        -0.1200 
     12 C12        56.6116   22.4616   38.7921 C.3       1 <0>         0.1500 
     13 C13        54.9291   23.1140   37.1043 C.3       1 <0>         0.1500 
     14 C14        57.2937   22.9897   36.4437 C.3       1 <0>         0.1500 
     15 C15        52.3255   24.2296   40.8858 C.ar      1 <0>        -0.1150 
     16 C16        52.0901   27.0516   40.6822 C.ar      1 <0>        -0.1150 
     17 C17        53.0464   20.5090   40.4147 C.3       1 <0>        -0.0149 
     18 C18        54.1587   22.4847   39.4255 C.3       1 <0>         0.0100 
     19 C19        52.3301   22.7457   41.0995 C.2       1 <0>         0.6150 
     20 C20        58.6299   20.7950   36.4425 C.2       1 <0>         0.5000 
     21 C21        58.6692   22.3059   36.5062 C.3       1 <0>         0.0000 
     22 C22        51.8866   28.5747   40.6831 C.3       1 <0>         0.3800 
     23 C23        50.8108   28.9715   41.7340 C.3       1 <0>         0.6171 
     24 N1         59.7880   20.1569   36.2509 N.am      1 <0>        -0.7600 
     25 N2         56.2404   22.4535   37.3491 N.4       1 <0>        -0.1000 
     26 N3         53.0548   21.9496   40.2646 N.am      1 <0>        -0.1151 
     27 O1         53.1040   29.2434   40.9704 O.3       1 <0>        -0.6936 
     28 O2         51.6492   22.3175   42.0319 O.2       1 <0>        -0.5000 
     29 O3         57.5911   20.1561   36.5704 O.2       1 <0>        -0.5000 
     30 F1         49.6244   28.4813   41.3701 F         1 <0>        -0.2057 
     31 F2         50.6977   30.2977   41.8159 F         1 <0>        -0.2057 
     32 F3         51.0930   28.4877   42.9407 F         1 <0>        -0.2057 
     33 H1         50.5355   28.7861   38.9701 H         1 <0>         0.0600 
     34 H2         51.4666   30.2252   39.3082 H         1 <0>         0.0600 
     35 H3         52.2543   28.8406   38.5686 H         1 <0>         0.0600 
     36 H4         51.1147   24.1737   39.0913 H         1 <0>         0.1150 
     37 H5         53.5012   24.6383   42.6549 H         1 <0>         0.1150 
     38 H6         50.8978   26.6090   38.9100 H         1 <0>         0.1150 
     39 H7         53.3181   27.0831   42.4703 H         1 <0>         0.1150 
     40 H8         51.7552   18.8695   41.2284 H         1 <0>         0.0600 
     41 H9         50.8019   20.2745   40.5264 H         1 <0>         0.0600 
     42 H10        52.0624   20.0983   38.4200 H         1 <0>         0.0600 
     43 H11        53.0499   18.7022   39.0914 H         1 <0>         0.0600 
     44 H12        55.8006   21.8386   40.7005 H         1 <0>         0.0600 
     45 H13        55.4712   20.7384   39.3806 H         1 <0>         0.0600 
     46 H14        53.6677   21.4449   37.5748 H         1 <0>         0.0600 
     47 H15        52.8704   22.9903   37.7481 H         1 <0>         0.0600 
     48 H16        60.6587   22.4444   35.4046 H         1 <0>         0.0600 
     49 H17        59.7185   24.0014   35.4395 H         1 <0>         0.0600 
     50 H18        59.4888   23.8168   37.9199 H         1 <0>         0.0600 
     51 H19        60.4412   22.2568   37.8853 H         1 <0>         0.0600 
     52 H20        56.7832   23.4869   39.1254 H         1 <0>         0.0600 
     53 H21        57.5492   21.9267   38.9477 H         1 <0>         0.0600 
     54 H22        54.9983   24.1748   37.3519 H         1 <0>         0.0600 
     55 H23        54.6782   23.0541   36.0453 H         1 <0>         0.0600 
     56 H24        56.9249   22.9464   35.4105 H         1 <0>         0.0600 
     57 H25        57.4292   24.0435   36.6731 H         1 <0>         0.0600 
     58 H26        53.8657   20.1011   41.0055 H         1 <0>         0.0600 
     59 H27        54.3464   23.5263   39.6835 H         1 <0>         0.0600 
     60 H28        59.7838   19.1489   36.1732 H         1 <0>         0.3800 
     61 H29        60.6469   20.6795   36.1613 H         1 <0>         0.3800 
     62 H30        56.1415   21.4798   37.0874 H         1 <0>         0.2900 
     63 H31        52.9232   30.1725   41.0822 H         1 <0>         0.4286 
@<TRIPOS>BOND
     1    1   22 1    
     2    1   33 1    
     3    1   34 1    
     4    1   35 1    
     5    2    4 ar   
     6    2   15 ar   
     7    2   36 1    
     8    3    5 ar   
     9    3   15 ar   
    10    3   37 1    
    11    4   16 ar   
    12    4   38 1    
    13    5   16 ar   
    14    5   39 1    
    15    6    7 1    
    16    6   17 1    
    17    6   40 1    
    18    6   41 1    
    19    7   17 1    
    20    7   42 1    
    21    7   43 1    
    22    8   12 1    
    23    8   18 1    
    24    8   44 1    
    25    8   45 1    
    26    9   13 1    
    27    9   18 1    
    28    9   46 1    
    29    9   47 1    
    30   10   11 1    
    31   10   21 1    
    32   10   48 1    
    33   10   49 1    
    34   11   21 1    
    35   11   50 1    
    36   11   51 1    
    37   12   25 1    
    38   12   52 1    
    39   12   53 1    
    40   13   25 1    
    41   13   54 1    
    42   13   55 1    
    43   14   21 1    
    44   14   25 1    
    45   14   56 1    
    46   14   57 1    
    47   15   19 1    
    48   16   22 1    
    49   17   26 1    
    50   17   58 1    
    51   18   26 1    
    52   18   59 1    
    53   19   26 am   BACKBONE|DICT|INTERRES
    54   19   28 2    
    55   20   21 1    
    56   20   24 am   BACKBONE|DICT|INTERRES
    57   20   29 2    
    58   22   23 1    
    59   22   27 1    
    60   23   30 1    
    61   23   31 1    
    62   23   32 1    
    63   24   60 1    
    64   24   61 1    
    65   25   62 1    
    66   27   63 1    
@<TRIPOS>SUBSTRUCTURE
     1 <0>         1 GROUP             0       ****    0 ROOT    
@<TRIPOS>MOLECULE
A49_2_3FRJ
63   66    1
SMALL
USER_CHARGES


@<TRIPOS>ATOM
      1 C1         51.7917   29.0020   39.2164 C.3       1 <0>        -0.1800 
      2 C2         51.8958   24.6615   39.8864 C.ar      1 <0>        -0.1150 
      3 C3         53.4717   25.0327   41.6962 C.ar      1 <0>        -0.1150 
      4 C4         51.6894   26.0534   39.7844 C.ar      1 <0>        -0.1150 
      5 C5         53.2759   26.4231   41.5861 C.ar      1 <0>        -0.1150 
      6 C6         51.6970   19.8368   40.5703 C.3       1 <0>        -0.1200 
      7 C7         52.1701   19.6909   39.1473 C.3       1 <0>        -0.1200 
      8 C8         54.1144   23.3067   38.0977 C.3       1 <0>        -0.1200 
      9 C9         55.7011   22.1353   39.6067 C.3       1 <0>        -0.1200 
     10 C10        60.1249   23.1921   35.8895 C.3       1 <0>        -0.1200 
     11 C11        59.9067   23.2434   37.3704 C.3       1 <0>        -0.1200 
     12 C12        55.1542   23.2424   36.9697 C.3       1 <0>         0.1500 
     13 C13        56.7319   22.0434   38.4722 C.3       1 <0>         0.1500 
     14 C14        57.5245   23.2056   36.3475 C.3       1 <0>         0.1500 
     15 C15        52.8003   24.1386   40.8361 C.ar      1 <0>        -0.1150 
     16 C16        52.3747   26.9544   40.6358 C.ar      1 <0>        -0.1150 
     17 C17        53.0399   20.4031   40.1598 C.3       1 <0>        -0.0149 
     18 C18        54.2859   22.0831   39.0084 C.3       1 <0>         0.0100 
     19 C19        52.9271   22.6557   41.0521 C.2       1 <0>         0.6150 
     20 C20        58.9525   21.0395   36.4547 C.2       1 <0>         0.5000 
     21 C21        58.8974   22.5413   36.5122 C.3       1 <0>         0.0000 
     22 C22        52.0785   28.4649   40.6215 C.3       1 <0>         0.3800 
     23 C23        50.9235   28.7945   41.6055 C.3       1 <0>         0.6171 
     24 N1         57.9842   20.4435   35.7710 N.am      1 <0>        -0.7600 
     25 N2         56.5533   23.1408   37.4792 N.4       1 <0>        -0.1000 
     26 N3         53.2374   21.8261   40.0210 N.am      1 <0>        -0.1151 
     27 O1         53.2107   29.2424   40.9704 O.3       1 <0>        -0.6936 
     28 O2         52.6635   22.2241   42.1703 O.2       1 <0>        -0.5000 
     29 O3         59.8480   20.3780   36.9710 O.2       1 <0>        -0.5000 
     30 F1         51.1380   28.2510   42.8029 F         1 <0>        -0.2057 
     31 F2         49.7731   28.3117   41.1334 F         1 <0>        -0.2057 
     32 F3         50.7881   30.1137   41.7498 F         1 <0>        -0.2057 
     33 H1         50.9172   28.5524   38.7650 H         1 <0>         0.0600 
     34 H2         51.6250   30.0799   39.2184 H         1 <0>         0.0600 
     35 H3         52.6428   28.7989   38.5704 H         1 <0>         0.0600 
     36 H4         51.3304   23.9939   39.2514 H         1 <0>         0.1150 
     37 H5         54.1235   24.6507   42.4685 H         1 <0>         0.1150 
     38 H6         50.9656   26.4066   39.0668 H         1 <0>         0.1150 
     39 H7         53.7864   27.0805   42.2743 H         1 <0>         0.1150 
     40 H8         51.6965   18.9426   41.1914 H         1 <0>         0.0600 
     41 H9         50.8703   20.5234   40.7463 H         1 <0>         0.0600 
     42 H10        51.6749   20.2943   38.3890 H         1 <0>         0.0600 
     43 H11        52.4816   18.7002   38.8223 H         1 <0>         0.0600 
     44 H12        53.1133   23.3241   37.6658 H         1 <0>         0.0600 
     45 H13        54.2535   24.2381   38.6456 H         1 <0>         0.0600 
     46 H14        55.8455   23.0558   40.1723 H         1 <0>         0.0600 
     47 H15        55.8585   21.3089   40.3010 H         1 <0>         0.0600 
     48 H16        60.9400   22.5619   35.5393 H         1 <0>         0.0600 
     49 H17        59.9923   24.1153   35.3307 H         1 <0>         0.0600 
     50 H18        59.6120   24.2056   37.7704 H         1 <0>         0.0600 
     51 H19        60.5236   22.6332   38.0215 H         1 <0>         0.0600 
     52 H20        54.9400   22.3899   36.3262 H         1 <0>         0.0600 
     53 H21        55.0557   24.1279   36.3425 H         1 <0>         0.0600 
     54 H22        56.6222   21.0759   37.9837 H         1 <0>         0.0600 
     55 H23        57.7323   22.0833   38.9063 H         1 <0>         0.0600 
     56 H24        57.0429   22.8516   35.4378 H         1 <0>         0.0600 
     57 H25        57.7236   24.2619   36.1706 H         1 <0>         0.0600 
     58 H26        53.9010   19.8455   40.5270 H         1 <0>         0.0600 
     59 H27        54.2643   21.2269   38.3290 H         1 <0>         0.0600 
     60 H28        58.0824   19.4585   35.5591 H         1 <0>         0.3800 
     61 H29        57.2772   20.9749   35.2890 H         1 <0>         0.3800 
     62 H30        56.7191   23.9829   38.0123 H         1 <0>         0.2900 
     63 H31        52.9247   30.1461   41.0811 H         1 <0>         0.4286 
@<TRIPOS>BOND
     1    1   22 1    
     2    1   33 1    
     3    1   34 1    
     4    1   35 1    
     5    2    4 ar   
     6    2   15 ar   
     7    2   36 1    
     8    3    5 ar   
     9    3   15 ar   
    10    3   37 1    
    11    4   16 ar   
    12    4   38 1    
    13    5   16 ar   
    14    5   39 1    
    15    6    7 1    
    16    6   17 1    
    17    6   40 1    
    18    6   41 1    
    19    7   17 1    
    20    7   42 1    
    21    7   43 1    
    22    8   12 1    
    23    8   18 1    
    24    8   44 1    
    25    8   45 1    
    26    9   13 1    
    27    9   18 1    
    28    9   46 1    
    29    9   47 1    
    30   10   11 1    
    31   10   21 1    
    32   10   48 1    
    33   10   49 1    
    34   11   21 1    
    35   11   50 1    
    36   11   51 1    
    37   12   25 1    
    38   12   52 1    
    39   12   53 1    
    40   13   25 1    
    41   13   54 1    
    42   13   55 1    
    43   14   21 1    
    44   14   25 1    
    45   14   56 1    
    46   14   57 1    
    47   15   19 1    
    48   16   22 1    
    49   17   26 1    
    50   17   58 1    
    51   18   26 1    
    52   18   59 1    
    53   19   26 am   BACKBONE|DICT|INTERRES
    54   19   28 2    
    55   20   21 1    
    56   20   24 am   BACKBONE|DICT|INTERRES
    57   20   29 2    
    58   22   23 1    
    59   22   27 1    
    60   23   30 1    
    61   23   31 1    
    62   23   32 1    
    63   24   60 1    
    64   24   61 1    
    65   25   62 1    
    66   27   63 1    
@<TRIPOS>SUBSTRUCTURE
     1 <0>         1 GROUP             0       ****    0 ROOT    
@<TRIPOS>MOLECULE
A49_2_3FRJ
63   66    1
SMALL
USER_CHARGES


@<TRIPOS>ATOM
      1 C1         51.4779   28.9394   39.3079 C.3       1 <0>        -0.1800 
      2 C2         51.1476   24.6275   39.9313 C.ar      1 <0>        -0.1150 
      3 C3         52.8443   24.7840   41.6758 C.ar      1 <0>        -0.1150 
      4 C4         51.1021   26.0324   39.8517 C.ar      1 <0>        -0.1150 
      5 C5         52.8045   26.1868   41.5873 C.ar      1 <0>        -0.1150 
      6 C6         51.7247   19.4604   40.5707 C.3       1 <0>        -0.1200 
      7 C7         52.6507   19.3722   39.3914 C.3       1 <0>        -0.1200 
      8 C8         55.3682   21.6421   39.7193 C.3       1 <0>        -0.1200 
      9 C9         53.6580   22.4219   38.0451 C.3       1 <0>        -0.1200 
     10 C10        59.7526   23.0355   36.1426 C.3       1 <0>        -0.1200 
     11 C11        59.5527   22.7927   37.6137 C.3       1 <0>        -0.1200 
     12 C12        56.4545   22.3718   38.9122 C.3       1 <0>         0.1500 
     13 C13        54.7838   23.1007   37.2485 C.3       1 <0>         0.1500 
     14 C14        57.1564   23.0015   36.5969 C.3       1 <0>         0.1500 
     15 C15        52.0128   23.9998   40.8497 C.ar      1 <0>        -0.1150 
     16 C16        51.9250   26.8286   40.6845 C.ar      1 <0>        -0.1150 
     17 C17        52.9737   20.3205   40.5339 C.3       1 <0>        -0.0149 
     18 C18        54.0056   22.3441   39.5443 C.3       1 <0>         0.0100 
     19 C19        51.9860   22.5114   41.0120 C.2       1 <0>         0.6150 
     20 C20        58.4563   20.7952   36.4542 C.2       1 <0>         0.5000 
     21 C21        58.5160   22.2924   36.6394 C.3       1 <0>         0.0000 
     22 C22        51.8252   28.3583   40.6878 C.3       1 <0>         0.3800 
     23 C23        50.8002   28.8225   41.7569 C.3       1 <0>         0.6171 
     24 N1         59.6002   20.1655   36.1753 N.am      1 <0>        -0.7600 
     25 N2         56.0931   22.4304   37.4682 N.4       1 <0>        -0.1000 
     26 N3         52.8941   21.7521   40.3346 N.am      1 <0>        -0.1151 
     27 O1         53.0780   28.9563   40.9704 O.3       1 <0>        -0.6936 
     28 O2         51.1331   22.0517   41.7704 O.2       1 <0>        -0.5000 
     29 O3         57.4138   20.1594   36.5705 O.2       1 <0>        -0.5000 
     30 F1         51.0662   28.2886   42.9480 F         1 <0>        -0.2057 
     31 F2         49.5712   28.4445   41.4012 F         1 <0>        -0.2057 
     32 F3         50.8050   30.1516   41.8653 F         1 <0>        -0.2057 
     33 H1         50.4784   28.6626   38.9768 H         1 <0>         0.0600 
     34 H2         51.5080   30.0296   39.3111 H         1 <0>         0.0600 
     35 H3         52.1906   28.5939   38.5617 H         1 <0>         0.0600 
     36 H4         50.4931   24.0344   39.3078 H         1 <0>         0.1150 
     37 H5         53.4957   24.3153   42.3999 H         1 <0>         0.1150 
     38 H6         50.4019   26.4812   39.1647 H         1 <0>         0.1150 
     39 H7         53.4265   26.7708   42.2507 H         1 <0>         0.1150 
     40 H8         51.7098   18.6265   41.2676 H         1 <0>         0.0600 
     41 H9         50.7591   19.9284   40.3955 H         1 <0>         0.0600 
     42 H10        52.2595   19.7690   38.4578 H         1 <0>         0.0600 
     43 H11        53.2468   18.4664   39.2972 H         1 <0>         0.0600 
     44 H12        55.6494   21.6211   40.7733 H         1 <0>         0.0600 
     45 H13        55.3224   20.6040   39.3862 H         1 <0>         0.0600 
     46 H14        53.4963   21.4258   37.6358 H         1 <0>         0.0600 
     47 H15        52.7262   22.9695   37.8989 H         1 <0>         0.0600 
     48 H16        60.5629   22.4963   35.6573 H         1 <0>         0.0600 
     49 H17        59.6076   24.0485   35.7720 H         1 <0>         0.0600 
     50 H18        59.2830   23.6432   38.2331 H         1 <0>         0.0600 
     51 H19        60.1607   22.0452   38.1176 H         1 <0>         0.0600 
     52 H20        56.6073   23.3794   39.3014 H         1 <0>         0.0600 
     53 H21        57.3945   21.8384   39.0500 H         1 <0>         0.0600 
     54 H22        54.8573   24.1521   37.5292 H         1 <0>         0.0600 
     55 H23        54.5330   23.0783   36.1867 H         1 <0>         0.0600 
     56 H24        56.8068   23.0076   35.5642 H         1 <0>         0.0600 
     57 H25        57.3062   24.0433   36.8738 H         1 <0>         0.0600 
     58 H26        53.7514   19.9953   41.2238 H         1 <0>         0.0600 
     59 H27        54.1962   23.3633   39.8759 H         1 <0>         0.0600 
     60 H28        59.5852   19.1669   36.0234 H         1 <0>         0.3800 
     61 H29        60.4601   20.6852   36.0930 H         1 <0>         0.3800 
     62 H30        55.9943   21.4684   37.1630 H         1 <0>         0.2900 
     63 H31        52.9293   29.8884   41.0742 H         1 <0>         0.4286 
@<TRIPOS>BOND
     1    1   22 1    
     2    1   33 1    
     3    1   34 1    
     4    1   35 1    
     5    2    4 ar   
     6    2   15 ar   
     7    2   36 1    
     8    3    5 ar   
     9    3   15 ar   
    10    3   37 1    
    11    4   16 ar   
    12    4   38 1    
    13    5   16 ar   
    14    5   39 1    
    15    6    7 1    
    16    6   17 1    
    17    6   40 1    
    18    6   41 1    
    19    7   17 1    
    20    7   42 1    
    21    7   43 1    
    22    8   12 1    
    23    8   18 1    
    24    8   44 1    
    25    8   45 1    
    26    9   13 1    
    27    9   18 1    
    28    9   46 1    
    29    9   47 1    
    30   10   11 1    
    31   10   21 1    
    32   10   48 1    
    33   10   49 1    
    34   11   21 1    
    35   11   50 1    
    36   11   51 1    
    37   12   25 1    
    38   12   52 1    
    39   12   53 1    
    40   13   25 1    
    41   13   54 1    
    42   13   55 1    
    43   14   21 1    
    44   14   25 1    
    45   14   56 1    
    46   14   57 1    
    47   15   19 1    
    48   16   22 1    
    49   17   26 1    
    50   17   58 1    
    51   18   26 1    
    52   18   59 1    
    53   19   26 am   BACKBONE|DICT|INTERRES
    54   19   28 2    
    55   20   21 1    
    56   20   24 am   BACKBONE|DICT|INTERRES
    57   20   29 2    
    58   22   23 1    
    59   22   27 1    
    60   23   30 1    
    61   23   31 1    
    62   23   32 1    
    63   24   60 1    
    64   24   61 1    
    65   25   62 1    
    66   27   63 1    
@<TRIPOS>SUBSTRUCTURE
     1 <0>         1 GROUP             0       ****    0 ROOT    
@<TRIPOS>MOLECULE
A49_2_3FRJ
63   66    1
SMALL
USER_CHARGES


@<TRIPOS>ATOM
      1 C1         51.5320   28.9231   39.3131 C.3       1 <0>        -0.1800 
      2 C2         52.9677   24.7662   41.6349 C.ar      1 <0>        -0.1150 
      3 C3         51.2238   24.6043   39.9379 C.ar      1 <0>        -0.1150 
      4 C4         52.9193   26.1685   41.5485 C.ar      1 <0>        -0.1150 
      5 C5         51.1699   26.0099   39.8593 C.ar      1 <0>        -0.1150 
      6 C6         51.7908   19.4421   40.5712 C.3       1 <0>        -0.1200 
      7 C7         52.6553   19.3796   39.3436 C.3       1 <0>        -0.1200 
      8 C8         55.4716   21.6434   39.7231 C.3       1 <0>        -0.1200 
      9 C9         53.7614   22.3330   38.0153 C.3       1 <0>        -0.1200 
     10 C10        59.7989   23.0499   35.9746 C.3       1 <0>        -0.1200 
     11 C11        59.7247   22.8206   37.4553 C.3       1 <0>        -0.1200 
     12 C12        56.5526   22.3731   38.9053 C.3       1 <0>         0.1500 
     13 C13        54.8744   23.0176   37.2091 C.3       1 <0>         0.1500 
     14 C14        57.2519   22.9955   36.5898 C.3       1 <0>         0.1500 
     15 C15        52.1148   23.9799   40.8334 C.ar      1 <0>        -0.1150 
     16 C16        52.0086   26.8072   40.6731 C.ar      1 <0>        -0.1150 
     17 C17        53.0487   20.2932   40.4918 C.3       1 <0>        -0.0149 
     18 C18        54.0976   22.3125   39.5168 C.3       1 <0>         0.0100 
     19 C19        52.0899   22.4927   41.0026 C.2       1 <0>         0.6150 
     20 C20        58.5722   20.7901   36.4305 C.2       1 <0>         0.5000 
     21 C21        58.6185   22.2937   36.5773 C.3       1 <0>         0.0000 
     22 C22        51.8936   28.3347   40.6881 C.3       1 <0>         0.3800 
     23 C23        50.8826   28.7836   41.7747 C.3       1 <0>         0.6171 
     24 N1         59.7218   20.1628   36.1710 N.am      1 <0>        -0.7600 
     25 N2         56.2022   22.3958   37.4570 N.4       1 <0>        -0.1000 
     26 N3         52.9881   21.7298   40.3166 N.am      1 <0>        -0.1151 
     27 O1         53.1382   28.9463   40.9704 O.3       1 <0>        -0.6936 
     28 O2         51.2404   22.0434   41.7705 O.2       1 <0>        -0.5000 
     29 O3         57.5374   20.1445   36.5704 O.2       1 <0>        -0.5000 
     30 F1         49.6432   28.4433   41.4162 F         1 <0>        -0.2057 
     31 F2         50.9193   30.1098   41.9207 F         1 <0>        -0.2057 
     32 F3         51.1450   28.2108   42.9494 F         1 <0>        -0.2057 
     33 H1         50.5411   28.6307   38.9708 H         1 <0>         0.0600 
     34 H2         51.5414   30.0149   39.3305 H         1 <0>         0.0600 
     35 H3         52.2559   28.6015   38.5660 H         1 <0>         0.0600 
     36 H4         53.6414   24.3003   42.3402 H         1 <0>         0.1150 
     37 H5         50.5548   24.0085   39.3334 H         1 <0>         0.1150 
     38 H6         53.5550   26.7555   42.1953 H         1 <0>         0.1150 
     39 H7         50.4486   26.4559   39.1924 H         1 <0>         0.1150 
     40 H8         51.8016   18.5834   41.2373 H         1 <0>         0.0600 
     41 H9         50.8187   19.9139   40.4496 H         1 <0>         0.0600 
     42 H10        52.2193   19.8060   38.4420 H         1 <0>         0.0600 
     43 H11        53.2487   18.4805   39.1911 H         1 <0>         0.0600 
     44 H12        55.7424   21.6543   40.7805 H         1 <0>         0.0600 
     45 H13        55.4456   20.5969   39.4163 H         1 <0>         0.0600 
     46 H14        53.6362   21.3198   37.6338 H         1 <0>         0.0600 
     47 H15        52.8163   22.8495   37.8440 H         1 <0>         0.0600 
     48 H16        60.5622   22.5093   35.4220 H         1 <0>         0.0600 
     49 H17        59.6392   24.0677   35.6316 H         1 <0>         0.0600 
     50 H18        59.4642   23.6447   38.1142 H         1 <0>         0.0600 
     51 H19        60.4241   22.1137   37.8905 H         1 <0>         0.0600 
     52 H20        56.6839   23.3917   39.2745 H         1 <0>         0.0600 
     53 H21        57.5043   21.8645   39.0542 H         1 <0>         0.0600 
     54 H22        54.9145   24.0787   37.4533 H         1 <0>         0.0600 
     55 H23        54.6319   22.9429   36.1484 H         1 <0>         0.0600 
     56 H24        56.8855   23.0290   35.5640 H         1 <0>         0.0600 
     57 H25        57.3948   24.0337   36.8919 H         1 <0>         0.0600 
     58 H26        53.8546   19.9390   41.1340 H         1 <0>         0.0600 
     59 H27        54.2667   23.3463   39.8107 H         1 <0>         0.0600 
     60 H28        59.7186   19.1599   36.0554 H         1 <0>         0.3800 
     61 H29        60.5777   20.6881   36.0732 H         1 <0>         0.3800 
     62 H30        56.1407   21.4272   37.1627 H         1 <0>         0.2900 
     63 H31        52.9703   29.8742   41.0862 H         1 <0>         0.4286 
@<TRIPOS>BOND
     1    1   22 1    
     2    1   33 1    
     3    1   34 1    
     4    1   35 1    
     5    2    4 ar   
     6    2   15 ar   
     7    2   36 1    
     8    3    5 ar   
     9    3   15 ar   
    10    3   37 1    
    11    4   16 ar   
    12    4   38 1    
    13    5   16 ar   
    14    5   39 1    
    15    6    7 1    
    16    6   17 1    
    17    6   40 1    
    18    6   41 1    
    19    7   17 1    
    20    7   42 1    
    21    7   43 1    
    22    8   12 1    
    23    8   18 1    
    24    8   44 1    
    25    8   45 1    
    26    9   13 1    
    27    9   18 1    
    28    9   46 1    
    29    9   47 1    
    30   10   11 1    
    31   10   21 1    
    32   10   48 1    
    33   10   49 1    
    34   11   21 1    
    35   11   50 1    
    36   11   51 1    
    37   12   25 1    
    38   12   52 1    
    39   12   53 1    
    40   13   25 1    
    41   13   54 1    
    42   13   55 1    
    43   14   21 1    
    44   14   25 1    
    45   14   56 1    
    46   14   57 1    
    47   15   19 1    
    48   16   22 1    
    49   17   26 1    
    50   17   58 1    
    51   18   26 1    
    52   18   59 1    
    53   19   26 am   BACKBONE|DICT|INTERRES
    54   19   28 2    
    55   20   21 1    
    56   20   24 am   BACKBONE|DICT|INTERRES
    57   20   29 2    
    58   22   23 1    
    59   22   27 1    
    60   23   30 1    
    61   23   31 1    
    62   23   32 1    
    63   24   60 1    
    64   24   61 1    
    65   25   62 1    
    66   27   63 1    
@<TRIPOS>SUBSTRUCTURE
     1 <0>         1 GROUP             0       ****    0 ROOT    
@<TRIPOS>MOLECULE
A49_2_3FRJ
63   66    1
SMALL
USER_CHARGES


@<TRIPOS>ATOM
      1 C1         53.6386   28.5624   40.6527 C.3       1 <0>        -0.1800 
      2 C2         52.6976   24.4416   41.7698 C.ar      1 <0>        -0.1150 
      3 C3         51.4753   24.4897   39.6602 C.ar      1 <0>        -0.1150 
      4 C4         52.7180   25.8433   41.7951 C.ar      1 <0>        -0.1150 
      5 C5         51.5081   25.8940   39.6791 C.ar      1 <0>        -0.1150 
      6 C6         51.9300   19.2489   40.2705 C.3       1 <0>        -0.1200 
      7 C7         52.7702   19.2735   39.0244 C.3       1 <0>        -0.1200 
      8 C8         55.5164   21.6504   39.6252 C.3       1 <0>        -0.1200 
      9 C9         53.8545   22.2723   37.8358 C.3       1 <0>        -0.1200 
     10 C10        59.9031   23.0120   35.8804 C.3       1 <0>        -0.1200 
     11 C11        59.8518   22.8672   37.3706 C.3       1 <0>        -0.1200 
     12 C12        56.5985   22.4256   38.8551 C.3       1 <0>         0.1500 
     13 C13        54.9746   22.9951   37.0816 C.3       1 <0>         0.1500 
     14 C14        57.3737   23.0281   36.5678 C.3       1 <0>         0.1500 
     15 C15        52.0693   23.7656   40.7088 C.ar      1 <0>        -0.1150 
     16 C16        52.1213   26.5859   40.7540 C.ar      1 <0>        -0.1150 
     17 C17        53.1313   20.1625   40.1941 C.3       1 <0>        -0.0149 
     18 C18        54.1206   22.2525   39.3515 C.3       1 <0>         0.0100 
     19 C19        52.0221   22.2773   40.7252 C.2       1 <0>         0.6150 
     20 C20        58.6593   20.7930   36.4353 C.2       1 <0>         0.5000 
     21 C21        58.7251   22.3018   36.5434 C.3       1 <0>         0.0000 
     22 C22        52.1767   28.1107   40.8327 C.3       1 <0>         0.3800 
     23 C23        51.2797   28.8444   39.8043 C.3       1 <0>         0.6171 
     24 N1         59.8016   20.1441   36.1974 N.am      1 <0>        -0.7600 
     25 N2         56.3061   22.4169   37.3967 N.4       1 <0>        -0.1000 
     26 N3         53.0005   21.5914   40.0718 N.am      1 <0>        -0.1151 
     27 O1         51.7229   28.5497   42.1053 O.3       1 <0>        -0.6936 
     28 O2         51.1121   21.7585   41.3680 O.2       1 <0>        -0.5000 
     29 O3         57.6161   20.1615   36.5704 O.2       1 <0>        -0.5000 
     30 F1         51.7237   28.6215   38.5704 F         1 <0>        -0.2057 
     31 F2         51.3251   30.1606   40.0079 F         1 <0>        -0.2057 
     32 F3         50.0119   28.4389   39.8882 F         1 <0>        -0.2057 
     33 H1         54.0221   28.2749   39.6734 H         1 <0>         0.0600 
     34 H2         53.7196   29.6434   40.7322 H         1 <0>         0.0600 
     35 H3         54.3021   28.1234   41.3970 H         1 <0>         0.0600 
     36 H4         53.1618   23.8869   42.5708 H         1 <0>         0.1150 
     37 H5         50.9887   23.9724   38.8433 H         1 <0>         0.1150 
     38 H6         53.1916   26.3455   42.6251 H         1 <0>         0.1150 
     39 H7         51.0373   26.4105   38.8588 H         1 <0>         0.1150 
     40 H8         52.0248   18.4434   40.9829 H         1 <0>         0.0600 
     41 H9         50.9234   19.6453   40.1630 H         1 <0>         0.0600 
     42 H10        52.2970   19.7134   38.1497 H         1 <0>         0.0600 
     43 H11        53.4351   18.4403   38.8232 H         1 <0>         0.0600 
     44 H12        55.7359   21.6740   40.6935 H         1 <0>         0.0600 
     45 H13        55.5611   20.6050   39.3158 H         1 <0>         0.0600 
     46 H14        53.7821   21.2583   37.4452 H         1 <0>         0.0600 
     47 H15        52.9019   22.7554   37.6208 H         1 <0>         0.0600 
     48 H16        60.6750   22.4441   35.3703 H         1 <0>         0.0600 
     49 H17        59.7250   24.0012   35.4648 H         1 <0>         0.0600 
     50 H18        59.6302   23.7466   37.9665 H         1 <0>         0.0600 
     51 H19        60.5235   22.1631   37.8493 H         1 <0>         0.0600 
     52 H20        56.6632   23.4515   39.2209 H         1 <0>         0.0600 
     53 H21        57.5686   21.9664   39.0456 H         1 <0>         0.0600 
     54 H22        54.9619   24.0592   37.3190 H         1 <0>         0.0600 
     55 H23        54.7866   22.9007   36.0118 H         1 <0>         0.0600 
     56 H24        57.0210   23.1136   35.5394 H         1 <0>         0.0600 
     57 H25        57.5309   24.0475   36.9127 H         1 <0>         0.0600 
     58 H26        53.9543   19.8284   40.8229 H         1 <0>         0.0600 
     59 H27        54.2199   23.2900   39.6667 H         1 <0>         0.0600 
     60 H28        59.7813   19.1383   36.1001 H         1 <0>         0.3800 
     61 H29        60.6660   20.6534   36.0963 H         1 <0>         0.3800 
     62 H30        56.2840   21.4426   37.1134 H         1 <0>         0.2900 
     63 H31        52.4424   28.5836   42.7274 H         1 <0>         0.4286 
@<TRIPOS>BOND
     1    1   22 1    
     2    1   33 1    
     3    1   34 1    
     4    1   35 1    
     5    2    4 ar   
     6    2   15 ar   
     7    2   36 1    
     8    3    5 ar   
     9    3   15 ar   
    10    3   37 1    
    11    4   16 ar   
    12    4   38 1    
    13    5   16 ar   
    14    5   39 1    
    15    6    7 1    
    16    6   17 1    
    17    6   40 1    
    18    6   41 1    
    19    7   17 1    
    20    7   42 1    
    21    7   43 1    
    22    8   12 1    
    23    8   18 1    
    24    8   44 1    
    25    8   45 1    
    26    9   13 1    
    27    9   18 1    
    28    9   46 1    
    29    9   47 1    
    30   10   11 1    
    31   10   21 1    
    32   10   48 1    
    33   10   49 1    
    34   11   21 1    
    35   11   50 1    
    36   11   51 1    
    37   12   25 1    
    38   12   52 1    
    39   12   53 1    
    40   13   25 1    
    41   13   54 1    
    42   13   55 1    
    43   14   21 1    
    44   14   25 1    
    45   14   56 1    
    46   14   57 1    
    47   15   19 1    
    48   16   22 1    
    49   17   26 1    
    50   17   58 1    
    51   18   26 1    
    52   18   59 1    
    53   19   26 am   BACKBONE|DICT|INTERRES
    54   19   28 2    
    55   20   21 1    
    56   20   24 am   BACKBONE|DICT|INTERRES
    57   20   29 2    
    58   22   23 1    
    59   22   27 1    
    60   23   30 1    
    61   23   31 1    
    62   23   32 1    
    63   24   60 1    
    64   24   61 1    
    65   25   62 1    
    66   27   63 1    
@<TRIPOS>SUBSTRUCTURE
     1 <0>         1 GROUP             0       ****    0 ROOT    
@<TRIPOS>MOLECULE
A49_2_3FRJ
63   66    1
SMALL
USER_CHARGES


@<TRIPOS>ATOM
      1 C1         51.8728   28.8382   39.1494 C.3       1 <0>        -0.1800 
      2 C2         52.9238   24.6954   41.6320 C.ar      1 <0>        -0.1150 
      3 C3         51.2658   24.5621   39.8499 C.ar      1 <0>        -0.1150 
      4 C4         52.9129   26.0972   41.5365 C.ar      1 <0>        -0.1150 
      5 C5         51.2490   25.9667   39.7599 C.ar      1 <0>        -0.1150 
      6 C6         51.8866   19.3407   40.5702 C.3       1 <0>        -0.1200 
      7 C7         52.7123   19.3411   39.3154 C.3       1 <0>        -0.1200 
      8 C8         55.5088   21.6427   39.7141 C.3       1 <0>        -0.1200 
      9 C9         53.7908   22.3306   38.0098 C.3       1 <0>        -0.1200 
     10 C10        59.8122   23.0073   35.9115 C.3       1 <0>        -0.1200 
     11 C11        59.7756   22.8135   37.3946 C.3       1 <0>        -0.1200 
     12 C12        56.5805   22.3951   38.9017 C.3       1 <0>         0.1500 
     13 C13        54.8968   23.0466   37.2200 C.3       1 <0>         0.1500 
     14 C14        57.2789   23.0091   36.5826 C.3       1 <0>         0.1500 
     15 C15        52.1021   23.9233   40.7866 C.ar      1 <0>        -0.1150 
     16 C16        52.0744   26.7494   40.6025 C.ar      1 <0>        -0.1150 
     17 C17        53.1065   20.2455   40.4703 C.3       1 <0>        -0.0149 
     18 C18        54.1215   22.2920   39.5130 C.3       1 <0>         0.0100 
     19 C19        52.0687   22.4350   40.9377 C.2       1 <0>         0.6150 
     20 C20        58.5605   20.7786   36.4280 C.2       1 <0>         0.5000 
     21 C21        58.6349   22.2836   36.5614 C.3       1 <0>         0.0000 
     22 C22        52.0225   28.2799   40.5704 C.3       1 <0>         0.3800 
     23 C23        50.8989   28.8014   41.5056 C.3       1 <0>         0.6171 
     24 N1         59.6995   20.1283   36.1713 N.am      1 <0>        -0.7600 
     25 N2         56.2258   22.4220   37.4558 N.4       1 <0>        -0.1000 
     26 N3         53.0121   21.6833   40.2982 N.am      1 <0>        -0.1151 
     27 O1         53.2553   28.8450   40.9704 O.3       1 <0>        -0.6936 
     28 O2         51.1784   21.9780   41.6534 O.2       1 <0>        -0.5000 
     29 O3         57.5147   20.1540   36.5703 O.2       1 <0>        -0.5000 
     30 F1         49.7072   28.4423   41.0263 F         1 <0>        -0.2057 
     31 F2         50.9232   30.1322   41.5799 F         1 <0>        -0.2057 
     32 F3         51.0197   28.2956   42.7328 F         1 <0>        -0.2057 
     33 H1         50.9233   28.5799   38.6941 H         1 <0>         0.0600 
     34 H2         51.9351   29.9276   39.1323 H         1 <0>         0.0600 
     35 H3         52.6659   28.4462   38.5156 H         1 <0>         0.0600 
     36 H4         53.5525   24.2183   42.3700 H         1 <0>         0.1150 
     37 H5         50.6156   23.9779   39.2151 H         1 <0>         0.1150 
     38 H6         53.5347   26.6715   42.2095 H         1 <0>         0.1150 
     39 H7         50.5780   26.4281   39.0530 H         1 <0>         0.1150 
     40 H8         51.9503   18.4468   41.1885 H         1 <0>         0.0600 
     41 H9         50.8918   19.7689   40.4904 H         1 <0>         0.0600 
     42 H10        52.2406   19.7779   38.4372 H         1 <0>         0.0600 
     43 H11        53.3235   18.4603   39.1254 H         1 <0>         0.0600 
     44 H12        55.7779   21.6519   40.7710 H         1 <0>         0.0600 
     45 H13        55.5022   20.5977   39.4022 H         1 <0>         0.0600 
     46 H14        53.6780   21.3214   37.6156 H         1 <0>         0.0600 
     47 H15        52.8389   22.8371   37.8427 H         1 <0>         0.0600 
     48 H16        60.5636   22.4423   35.3692 H         1 <0>         0.0600 
     49 H17        59.6695   24.0227   35.5503 H         1 <0>         0.0600 
     50 H18        59.5444   23.6522   38.0415 H         1 <0>         0.0600 
     51 H19        60.4851   22.1120   37.8192 H         1 <0>         0.0600 
     52 H20        56.6975   23.4131   39.2753 H         1 <0>         0.0600 
     53 H21        57.5419   21.9023   39.0435 H         1 <0>         0.0600 
     54 H22        54.9249   24.1006   37.4988 H         1 <0>         0.0600 
     55 H23        54.6547   23.0142   36.1573 H         1 <0>         0.0600 
     56 H24        56.9052   23.0519   35.5601 H         1 <0>         0.0600 
     57 H25        57.4410   24.0436   36.8883 H         1 <0>         0.0600 
     58 H26        53.9375   19.9109   41.0878 H         1 <0>         0.0600 
     59 H27        54.2786   23.3220   39.8271 H         1 <0>         0.0600 
     60 H28        59.6761   19.1243   36.0560 H         1 <0>         0.3800 
     61 H29        60.5641   20.6362   36.0675 H         1 <0>         0.3800 
     62 H30        56.1592   21.4528   37.1617 H         1 <0>         0.2900 
     63 H31        53.1303   29.7849   41.0044 H         1 <0>         0.4286 
@<TRIPOS>BOND
     1    1   22 1    
     2    1   33 1    
     3    1   34 1    
     4    1   35 1    
     5    2    4 ar   
     6    2   15 ar   
     7    2   36 1    
     8    3    5 ar   
     9    3   15 ar   
    10    3   37 1    
    11    4   16 ar   
    12    4   38 1    
    13    5   16 ar   
    14    5   39 1    
    15    6    7 1    
    16    6   17 1    
    17    6   40 1    
    18    6   41 1    
    19    7   17 1    
    20    7   42 1    
    21    7   43 1    
    22    8   12 1    
    23    8   18 1    
    24    8   44 1    
    25    8   45 1    
    26    9   13 1    
    27    9   18 1    
    28    9   46 1    
    29    9   47 1    
    30   10   11 1    
    31   10   21 1    
    32   10   48 1    
    33   10   49 1    
    34   11   21 1    
    35   11   50 1    
    36   11   51 1    
    37   12   25 1    
    38   12   52 1    
    39   12   53 1    
    40   13   25 1    
    41   13   54 1    
    42   13   55 1    
    43   14   21 1    
    44   14   25 1    
    45   14   56 1    
    46   14   57 1    
    47   15   19 1    
    48   16   22 1    
    49   17   26 1    
    50   17   58 1    
    51   18   26 1    
    52   18   59 1    
    53   19   26 am   BACKBONE|DICT|INTERRES
    54   19   28 2    
    55   20   21 1    
    56   20   24 am   BACKBONE|DICT|INTERRES
    57   20   29 2    
    58   22   23 1    
    59   22   27 1    
    60   23   30 1    
    61   23   31 1    
    62   23   32 1    
    63   24   60 1    
    64   24   61 1    
    65   25   62 1    
    66   27   63 1    
@<TRIPOS>SUBSTRUCTURE
     1 <0>         1 GROUP             0       ****    0 ROOT    
@<TRIPOS>MOLECULE
A49_2_3FRJ
63   66    1
SMALL
USER_CHARGES


@<TRIPOS>ATOM
      1 C1         51.8886   28.8595   39.1387 C.3       1 <0>        -0.1800 
      2 C2         51.4564   24.5805   39.7594 C.ar      1 <0>        -0.1150 
      3 C3         52.8514   24.7548   41.7529 C.ar      1 <0>        -0.1150 
      4 C4         51.4304   25.9835   39.6583 C.ar      1 <0>        -0.1150 
      5 C5         52.8374   26.1542   41.6414 C.ar      1 <0>        -0.1150 
      6 C6         51.7533   19.4320   40.5703 C.3       1 <0>        -0.1200 
      7 C7         52.5243   19.3981   39.2788 C.3       1 <0>        -0.1200 
      8 C8         55.4903   21.6474   39.7185 C.3       1 <0>        -0.1200 
      9 C9         53.8034   22.2940   37.9739 C.3       1 <0>        -0.1200 
     10 C10        59.8403   23.0113   35.8854 C.3       1 <0>        -0.1200 
     11 C11        59.8134   22.8552   37.3713 C.3       1 <0>        -0.1200 
     12 C12        56.5758   22.3910   38.9113 C.3       1 <0>         0.1500 
     13 C13        54.9142   23.0099   37.1904 C.3       1 <0>         0.1500 
     14 C14        57.3070   23.0206   36.6036 C.3       1 <0>         0.1500 
     15 C15        52.1581   23.9657   40.8145 C.ar      1 <0>        -0.1150 
     16 C16        52.1169   26.7849   40.6025 C.ar      1 <0>        -0.1150 
     17 C17        53.0197   20.2668   40.4172 C.3       1 <0>        -0.0149 
     18 C18        54.1080   22.2905   39.4824 C.3       1 <0>         0.0100 
     19 C19        52.1171   22.4811   40.9841 C.2       1 <0>         0.6150 
     20 C20        58.5923   20.7951   36.4341 C.2       1 <0>         0.5000 
     21 C21        58.6656   22.3012   36.5574 C.3       1 <0>         0.0000 
     22 C22        52.0470   28.3132   40.5623 C.3       1 <0>         0.3800 
     23 C23        50.9111   28.8260   41.4867 C.3       1 <0>         0.6171 
     24 N1         59.7297   20.1444   36.1793 N.am      1 <0>        -0.7600 
     25 N2         56.2488   22.4103   37.4574 N.4       1 <0>        -0.1000 
     26 N3         52.9870   21.7081   40.2721 N.am      1 <0>        -0.1151 
     27 O1         53.2707   28.8931   40.9704 O.3       1 <0>        -0.6936 
     28 O2         51.2808   22.0433   41.7706 O.2       1 <0>        -0.5000 
     29 O3         57.5473   20.1674   36.5704 O.2       1 <0>        -0.5000 
     30 F1         50.9233   30.1580   41.5416 F         1 <0>        -0.2057 
     31 F2         51.0299   28.3412   42.7220 F         1 <0>        -0.2057 
     32 F3         49.7262   28.4426   41.0066 F         1 <0>        -0.2057 
     33 H1         50.9246   28.6165   38.7052 H         1 <0>         0.0600 
     34 H2         51.9696   29.9465   39.1110 H         1 <0>         0.0600 
     35 H3         52.6663   28.4481   38.4973 H         1 <0>         0.0600 
     36 H4         50.9085   23.9820   39.0454 H         1 <0>         0.1150 
     37 H5         53.3818   24.2896   42.5707 H         1 <0>         0.1150 
     38 H6         50.8545   26.4277   38.8615 H         1 <0>         0.1150 
     39 H7         53.3573   26.7450   42.3822 H         1 <0>         0.1150 
     40 H8         51.7997   18.5420   41.1950 H         1 <0>         0.0600 
     41 H9         50.7790   19.9123   40.5351 H         1 <0>         0.0600 
     42 H10        52.0482   19.8724   38.4236 H         1 <0>         0.0600 
     43 H11        53.0864   18.4945   39.0549 H         1 <0>         0.0600 
     44 H12        55.7401   21.6694   40.7796 H         1 <0>         0.0600 
     45 H13        55.4867   20.5988   39.4199 H         1 <0>         0.0600 
     46 H14        53.7089   21.2746   37.6003 H         1 <0>         0.0600 
     47 H15        52.8502   22.7848   37.7806 H         1 <0>         0.0600 
     48 H16        60.6077   22.4438   35.3702 H         1 <0>         0.0600 
     49 H17        59.6913   24.0147   35.4932 H         1 <0>         0.0600 
     50 H18        59.6096   23.7338   37.9751 H         1 <0>         0.0600 
     51 H19        60.5176   22.1593   37.8153 H         1 <0>         0.0600 
     52 H20        56.6874   23.4116   39.2786 H         1 <0>         0.0600 
     53 H21        57.5354   21.8978   39.0709 H         1 <0>         0.0600 
     54 H22        54.9271   24.0692   37.4471 H         1 <0>         0.0600 
     55 H23        54.6918   22.9515   36.1243 H         1 <0>         0.0600 
     56 H24        56.9367   23.0976   35.5802 H         1 <0>         0.0600 
     57 H25        57.4671   24.0433   36.9404 H         1 <0>         0.0600 
     58 H26        53.8585   19.8798   40.9944 H         1 <0>         0.0600 
     59 H27        54.2634   23.3293   39.7703 H         1 <0>         0.0600 
     60 H28        59.7058   19.1395   36.0705 H         1 <0>         0.3800 
     61 H29        60.5960   20.6504   36.0795 H         1 <0>         0.3800 
     62 H30        56.2058   21.4401   37.1627 H         1 <0>         0.2900 
     63 H31        53.1311   29.8317   41.0136 H         1 <0>         0.4286 
@<TRIPOS>BOND
     1    1   22 1    
     2    1   33 1    
     3    1   34 1    
     4    1   35 1    
     5    2    4 ar   
     6    2   15 ar   
     7    2   36 1    
     8    3    5 ar   
     9    3   15 ar   
    10    3   37 1    
    11    4   16 ar   
    12    4   38 1    
    13    5   16 ar   
    14    5   39 1    
    15    6    7 1    
    16    6   17 1    
    17    6   40 1    
    18    6   41 1    
    19    7   17 1    
    20    7   42 1    
    21    7   43 1    
    22    8   12 1    
    23    8   18 1    
    24    8   44 1    
    25    8   45 1    
    26    9   13 1    
    27    9   18 1    
    28    9   46 1    
    29    9   47 1    
    30   10   11 1    
    31   10   21 1    
    32   10   48 1    
    33   10   49 1    
    34   11   21 1    
    35   11   50 1    
    36   11   51 1    
    37   12   25 1    
    38   12   52 1    
    39   12   53 1    
    40   13   25 1    
    41   13   54 1    
    42   13   55 1    
    43   14   21 1    
    44   14   25 1    
    45   14   56 1    
    46   14   57 1    
    47   15   19 1    
    48   16   22 1    
    49   17   26 1    
    50   17   58 1    
    51   18   26 1    
    52   18   59 1    
    53   19   26 am   BACKBONE|DICT|INTERRES
    54   19   28 2    
    55   20   21 1    
    56   20   24 am   BACKBONE|DICT|INTERRES
    57   20   29 2    
    58   22   23 1    
    59   22   27 1    
    60   23   30 1    
    61   23   31 1    
    62   23   32 1    
    63   24   60 1    
    64   24   61 1    
    65   25   62 1    
    66   27   63 1    
@<TRIPOS>SUBSTRUCTURE
     1 <0>         1 GROUP             0       ****    0 ROOT    
@<TRIPOS>MOLECULE
A49_2_3FRJ
63   66    1
SMALL
USER_CHARGES


@<TRIPOS>ATOM
      1 C1         51.9960   28.8430   39.0567 C.3       1 <0>        -0.1800 
      2 C2         52.8083   24.7496   41.7387 C.ar      1 <0>        -0.1150 
      3 C3         51.4668   24.5705   39.7088 C.ar      1 <0>        -0.1150 
      4 C4         52.8106   26.1477   41.6151 C.ar      1 <0>        -0.1150 
      5 C5         51.4630   25.9731   39.5911 C.ar      1 <0>        -0.1150 
      6 C6         51.7297   19.4320   40.5700 C.3       1 <0>        -0.1200 
      7 C7         52.5310   19.3644   39.2983 C.3       1 <0>        -0.1200 
      8 C8         55.4462   21.6244   39.6896 C.3       1 <0>        -0.1200 
      9 C9         53.7560   22.2946   37.9568 C.3       1 <0>        -0.1200 
     10 C10        59.8004   23.0435   35.9530 C.3       1 <0>        -0.1200 
     11 C11        59.7354   22.8206   37.4348 C.3       1 <0>        -0.1200 
     12 C12        56.5331   22.3677   38.8891 C.3       1 <0>         0.1500 
     13 C13        54.8707   23.0111   37.1797 C.3       1 <0>         0.1500 
     14 C14        57.2577   23.0075   36.5857 C.3       1 <0>         0.1500 
     15 C15        52.1323   23.9590   40.7897 C.ar      1 <0>        -0.1150 
     16 C16        52.1313   26.7755   40.5465 C.ar      1 <0>        -0.1150 
     17 C17        52.9957   20.2624   40.4260 C.3       1 <0>        -0.0149 
     18 C18        54.0685   22.2796   39.4625 C.3       1 <0>         0.0100 
     19 C19        52.0874   22.4760   40.9704 C.2       1 <0>         0.6150 
     20 C20        58.5674   20.7917   36.4279 C.2       1 <0>         0.5000 
     21 C21        58.6189   22.2964   36.5699 C.3       1 <0>         0.0000 
     22 C22        52.0824   28.3035   40.4883 C.3       1 <0>         0.3800 
     23 C23        50.9047   28.8355   41.3404 C.3       1 <0>         0.6171 
     24 N1         59.7161   20.1606   36.1710 N.am      1 <0>        -0.7600 
     25 N2         56.2003   22.3990   37.4374 N.4       1 <0>        -0.1000 
     26 N3         52.9515   21.6996   40.2569 N.am      1 <0>        -0.1151 
     27 O1         53.2841   28.8749   40.9704 O.3       1 <0>        -0.6936 
     28 O2         51.2609   22.0430   41.7703 O.2       1 <0>        -0.5000 
     29 O3         57.5326   20.1483   36.5677 O.2       1 <0>        -0.5000 
     30 F1         49.7430   28.4428   40.8142 F         1 <0>        -0.2057 
     31 F2         50.9234   30.1674   41.3710 F         1 <0>        -0.2057 
     32 F3         50.9655   28.3734   42.5845 F         1 <0>        -0.2057 
     33 H1         51.0568   28.5918   38.5715 H         1 <0>         0.0600 
     34 H2         52.0708   29.9313   39.0322 H         1 <0>         0.0600 
     35 H3         52.8130   28.4421   38.4607 H         1 <0>         0.0600 
     36 H4         53.3166   24.2850   42.5705 H         1 <0>         0.1150 
     37 H5         50.9350   23.9690   38.9850 H         1 <0>         0.1150 
     38 H6         53.3157   26.7398   42.3647 H         1 <0>         0.1150 
     39 H7         50.9193   26.4156   38.7711 H         1 <0>         0.1150 
     40 H8         51.7644   18.5673   41.2293 H         1 <0>         0.0600 
     41 H9         50.7594   19.9167   40.5043 H         1 <0>         0.0600 
     42 H10        52.0745   19.8157   38.4199 H         1 <0>         0.0600 
     43 H11        53.0965   18.4532   39.1123 H         1 <0>         0.0600 
     44 H12        55.7013   21.6355   40.7497 H         1 <0>         0.0600 
     45 H13        55.4319   20.5783   39.3788 H         1 <0>         0.0600 
     46 H14        53.6530   21.2783   37.5763 H         1 <0>         0.0600 
     47 H15        52.8036   22.7908   37.7705 H         1 <0>         0.0600 
     48 H16        60.5591   22.4978   35.3967 H         1 <0>         0.0600 
     49 H17        59.6441   24.0630   35.6084 H         1 <0>         0.0600 
     50 H18        59.4825   23.6453   38.0925 H         1 <0>         0.0600 
     51 H19        60.4331   22.1098   37.8686 H         1 <0>         0.0600 
     52 H20        56.6511   23.3845   39.2638 H         1 <0>         0.0600 
     53 H21        57.4890   21.8644   39.0451 H         1 <0>         0.0600 
     54 H22        54.8961   24.0676   37.4488 H         1 <0>         0.0600 
     55 H23        54.6442   22.9659   36.1135 H         1 <0>         0.0600 
     56 H24        56.8986   23.0550   35.5574 H         1 <0>         0.0600 
     57 H25        57.4041   24.0430   36.8985 H         1 <0>         0.0600 
     58 H26        53.8254   19.8959   41.0287 H         1 <0>         0.0600 
     59 H27        54.2336   23.3156   39.7550 H         1 <0>         0.0600 
     60 H28        59.7080   19.1567   36.0525 H         1 <0>         0.3800 
     61 H29        60.5729   20.6837   36.0715 H         1 <0>         0.3800 
     62 H30        56.1494   21.4316   37.1361 H         1 <0>         0.2900 
     63 H31        53.1607   29.8166   40.9744 H         1 <0>         0.4286 
@<TRIPOS>BOND
     1    1   22 1    
     2    1   33 1    
     3    1   34 1    
     4    1   35 1    
     5    2    4 ar   
     6    2   15 ar   
     7    2   36 1    
     8    3    5 ar   
     9    3   15 ar   
    10    3   37 1    
    11    4   16 ar   
    12    4   38 1    
    13    5   16 ar   
    14    5   39 1    
    15    6    7 1    
    16    6   17 1    
    17    6   40 1    
    18    6   41 1    
    19    7   17 1    
    20    7   42 1    
    21    7   43 1    
    22    8   12 1    
    23    8   18 1    
    24    8   44 1    
    25    8   45 1    
    26    9   13 1    
    27    9   18 1    
    28    9   46 1    
    29    9   47 1    
    30   10   11 1    
    31   10   21 1    
    32   10   48 1    
    33   10   49 1    
    34   11   21 1    
    35   11   50 1    
    36   11   51 1    
    37   12   25 1    
    38   12   52 1    
    39   12   53 1    
    40   13   25 1    
    41   13   54 1    
    42   13   55 1    
    43   14   21 1    
    44   14   25 1    
    45   14   56 1    
    46   14   57 1    
    47   15   19 1    
    48   16   22 1    
    49   17   26 1    
    50   17   58 1    
    51   18   26 1    
    52   18   59 1    
    53   19   26 am   BACKBONE|DICT|INTERRES
    54   19   28 2    
    55   20   21 1    
    56   20   24 am   BACKBONE|DICT|INTERRES
    57   20   29 2    
    58   22   23 1    
    59   22   27 1    
    60   23   30 1    
    61   23   31 1    
    62   23   32 1    
    63   24   60 1    
    64   24   61 1    
    65   25   62 1    
    66   27   63 1    
@<TRIPOS>SUBSTRUCTURE
     1 <0>         1 GROUP             0       ****    0 ROOT    
@<TRIPOS>MOLECULE
A49_2_3FRJ
63   66    1
SMALL
USER_CHARGES


@<TRIPOS>ATOM
      1 C1         51.4981   29.0811   39.2961 C.3       1 <0>        -0.1800 
      2 C2         52.9966   25.1031   41.9267 C.ar      1 <0>        -0.1150 
      3 C3         51.7375   24.7720   39.8693 C.ar      1 <0>        -0.1150 
      4 C4         52.8414   26.4932   41.7972 C.ar      1 <0>        -0.1150 
      5 C5         51.5684   26.1657   39.7495 C.ar      1 <0>        -0.1150 
      6 C6         51.8642   19.7782   40.5706 C.3       1 <0>        -0.1200 
      7 C7         52.6098   19.7005   39.2675 C.3       1 <0>        -0.1200 
      8 C8         55.6663   21.9069   39.7275 C.3       1 <0>        -0.1200 
      9 C9         53.9677   22.4574   37.9567 C.3       1 <0>        -0.1200 
     10 C10        60.0299   23.1229   35.8734 C.3       1 <0>        -0.1200 
     11 C11        59.9113   23.1946   37.3641 C.3       1 <0>        -0.1200 
     12 C12        56.7485   22.6090   38.8863 C.3       1 <0>         0.1500 
     13 C13        55.0711   23.1517   37.1479 C.3       1 <0>         0.1500 
     14 C14        57.4561   23.1975   36.5710 C.3       1 <0>         0.1500 
     15 C15        52.4351   24.2347   40.9710 C.ar      1 <0>        -0.1150 
     16 C16        52.1054   27.0423   40.7239 C.ar      1 <0>        -0.1150 
     17 C17        53.1722   20.5357   40.4047 C.3       1 <0>        -0.0149 
     18 C18        54.2822   22.5319   39.4598 C.3       1 <0>         0.0100 
     19 C19        52.5087   22.7531   41.1916 C.2       1 <0>         0.6150 
     20 C20        58.8301   21.0129   36.5698 C.2       1 <0>         0.5000 
     21 C21        58.8255   22.5130   36.5729 C.3       1 <0>         0.0000 
     22 C22        51.8799   28.5596   40.6888 C.3       1 <0>         0.3800 
     23 C23        50.7915   28.9672   41.7210 C.3       1 <0>         0.6171 
     24 N1         57.9201   20.4441   35.7818 N.am      1 <0>        -0.7600 
     25 N2         56.4143   22.5764   37.4340 N.4       1 <0>        -0.1000 
     26 N3         53.1893   21.9788   40.3003 N.am      1 <0>        -0.1151 
     27 O1         53.0896   29.2432   40.9703 O.3       1 <0>        -0.6936 
     28 O2         51.9108   22.3062   42.1701 O.2       1 <0>        -0.5000 
     29 O3         59.6465   20.3360   37.1880 O.2       1 <0>        -0.5000 
     30 F1         51.0683   28.5227   42.9445 F         1 <0>        -0.2057 
     31 F2         49.6164   28.4469   41.3594 F         1 <0>        -0.2057 
     32 F3         50.6553   30.2927   41.7694 F         1 <0>        -0.2057 
     33 H1         50.5261   28.7089   38.9704 H         1 <0>         0.0600 
     34 H2         51.4367   30.1689   39.2735 H         1 <0>         0.0600 
     35 H3         52.2497   28.7813   38.5702 H         1 <0>         0.0600 
     36 H4         53.5279   24.7062   42.7799 H         1 <0>         0.1150 
     37 H5         51.2901   24.1161   39.1363 H         1 <0>         0.1150 
     38 H6         53.2593   27.1389   42.5568 H         1 <0>         0.1150 
     39 H7         50.9971   26.5354   38.9135 H         1 <0>         0.1150 
     40 H8         51.8717   18.8906   41.2023 H         1 <0>         0.0600 
     41 H9         50.9283   20.3352   40.5666 H         1 <0>         0.0600 
     42 H10        52.1420   20.2017   38.4232 H         1 <0>         0.0600 
     43 H11        53.1159   18.7657   39.0329 H         1 <0>         0.0600 
     44 H12        55.9179   21.9806   40.7861 H         1 <0>         0.0600 
     45 H13        55.6655   20.8450   39.4827 H         1 <0>         0.0600 
     46 H14        53.8941   21.4229   37.6256 H         1 <0>         0.0600 
     47 H15        53.0055   22.9252   37.7445 H         1 <0>         0.0600 
     48 H16        60.7960   22.4589   35.4759 H         1 <0>         0.0600 
     49 H17        59.8858   24.0448   35.3166 H         1 <0>         0.0600 
     50 H18        59.7030   24.1763   37.7704 H         1 <0>         0.0600 
     51 H19        60.5239   22.5600   37.9914 H         1 <0>         0.0600 
     52 H20        56.8657   23.6429   39.2157 H         1 <0>         0.0600 
     53 H21        57.7048   22.1182   39.0655 H         1 <0>         0.0600 
     54 H22        55.0667   24.2189   37.3707 H         1 <0>         0.0600 
     55 H23        54.8419   23.0541   36.0876 H         1 <0>         0.0600 
     56 H24        57.0999   23.2431   35.5425 H         1 <0>         0.0600 
     57 H25        57.5997   24.2281   36.8899 H         1 <0>         0.0600 
     58 H26        53.9999   20.1030   40.9664 H         1 <0>         0.0600 
     59 H27        54.4205   23.5889   39.6820 H         1 <0>         0.0600 
     60 H28        57.9886   19.4479   35.6040 H         1 <0>         0.3800 
     61 H29        57.3401   20.9987   35.1725 H         1 <0>         0.3800 
     62 H30        56.3691   21.6010   37.1693 H         1 <0>         0.2900 
     63 H31        52.9094   30.1732   41.0679 H         1 <0>         0.4286 
@<TRIPOS>BOND
     1    1   22 1    
     2    1   33 1    
     3    1   34 1    
     4    1   35 1    
     5    2    4 ar   
     6    2   15 ar   
     7    2   36 1    
     8    3    5 ar   
     9    3   15 ar   
    10    3   37 1    
    11    4   16 ar   
    12    4   38 1    
    13    5   16 ar   
    14    5   39 1    
    15    6    7 1    
    16    6   17 1    
    17    6   40 1    
    18    6   41 1    
    19    7   17 1    
    20    7   42 1    
    21    7   43 1    
    22    8   12 1    
    23    8   18 1    
    24    8   44 1    
    25    8   45 1    
    26    9   13 1    
    27    9   18 1    
    28    9   46 1    
    29    9   47 1    
    30   10   11 1    
    31   10   21 1    
    32   10   48 1    
    33   10   49 1    
    34   11   21 1    
    35   11   50 1    
    36   11   51 1    
    37   12   25 1    
    38   12   52 1    
    39   12   53 1    
    40   13   25 1    
    41   13   54 1    
    42   13   55 1    
    43   14   21 1    
    44   14   25 1    
    45   14   56 1    
    46   14   57 1    
    47   15   19 1    
    48   16   22 1    
    49   17   26 1    
    50   17   58 1    
    51   18   26 1    
    52   18   59 1    
    53   19   26 am   BACKBONE|DICT|INTERRES
    54   19   28 2    
    55   20   21 1    
    56   20   24 am   BACKBONE|DICT|INTERRES
    57   20   29 2    
    58   22   23 1    
    59   22   27 1    
    60   23   30 1    
    61   23   31 1    
    62   23   32 1    
    63   24   60 1    
    64   24   61 1    
    65   25   62 1    
    66   27   63 1    
@<TRIPOS>SUBSTRUCTURE
     1 <0>         1 GROUP             0       ****    0 ROOT    
@<TRIPOS>MOLECULE
A49_2_3FRJ
63   66    1
SMALL
USER_CHARGES


@<TRIPOS>ATOM
      1 C1         51.8797   28.8526   39.1272 C.3       1 <0>        -0.1800 
      2 C2         51.3356   24.5922   39.8070 C.ar      1 <0>        -0.1150 
      3 C3         52.8114   24.7510   41.7445 C.ar      1 <0>        -0.1150 
      4 C4         51.3324   25.9940   39.6982 C.ar      1 <0>        -0.1150 
      5 C5         52.8170   26.1505   41.6267 C.ar      1 <0>        -0.1150 
      6 C6         51.7238   19.4222   40.5704 C.3       1 <0>        -0.1200 
      7 C7         52.5346   19.3997   39.3043 C.3       1 <0>        -0.1200 
      8 C8         55.3860   21.6273   39.6904 C.3       1 <0>        -0.1200 
      9 C9         53.6822   22.3728   38.0012 C.3       1 <0>        -0.1200 
     10 C10        59.7899   23.0486   36.1679 C.3       1 <0>        -0.1200 
     11 C11        59.5552   22.8012   37.6331 C.3       1 <0>        -0.1200 
     12 C12        56.4711   22.3623   38.8862 C.3       1 <0>         0.1500 
     13 C13        54.8025   23.0692   37.2119 C.3       1 <0>         0.1500 
     14 C14        57.1821   22.9941   36.5721 C.3       1 <0>         0.1500 
     15 C15        52.0703   23.9709   40.8346 C.ar      1 <0>        -0.1150 
     16 C16        52.0720   26.7865   40.6075 C.ar      1 <0>        -0.1150 
     17 C17        52.9686   20.2852   40.4559 C.3       1 <0>        -0.0149 
     18 C18        54.0191   22.3139   39.5032 C.3       1 <0>         0.0100 
     19 C19        52.0240   22.4875   40.9977 C.2       1 <0>         0.6150 
     20 C20        58.5039   20.7964   36.4498 C.2       1 <0>         0.5000 
     21 C21        58.5469   22.2953   36.6331 C.3       1 <0>         0.0000 
     22 C22        52.0189   28.3138   40.5569 C.3       1 <0>         0.3800 
     23 C23        50.8772   28.8350   41.4660 C.3       1 <0>         0.6171 
     24 N1         59.6542   20.1803   36.1707 N.am      1 <0>        -0.7600 
     25 N2         56.1189   22.4152   37.4397 N.4       1 <0>        -0.1000 
     26 N3         52.9069   21.7224   40.2960 N.am      1 <0>        -0.1151 
     27 O1         53.2419   28.8914   40.9704 O.3       1 <0>        -0.6936 
     28 O2         51.1785   22.0436   41.7707 O.2       1 <0>        -0.5000 
     29 O3         57.4697   20.1482   36.5704 O.2       1 <0>        -0.5000 
     30 F1         50.9768   28.3612   42.7062 F         1 <0>        -0.2057 
     31 F2         49.6994   28.4456   40.9744 F         1 <0>        -0.2057 
     32 F3         50.8970   30.1667   41.5120 F         1 <0>        -0.2057 
     33 H1         50.9235   28.6085   38.6781 H         1 <0>         0.0600 
     34 H2         51.9592   29.9409   39.0973 H         1 <0>         0.0600 
     35 H3         52.6677   28.4432   38.4974 H         1 <0>         0.0600 
     36 H4         50.7513   23.9984   39.1177 H         1 <0>         0.1150 
     37 H5         53.3649   24.2823   42.5470 H         1 <0>         0.1150 
     38 H6         50.7310   26.4433   38.9239 H         1 <0>         0.1150 
     39 H7         53.3703   26.7357   42.3477 H         1 <0>         0.1150 
     40 H8         51.7706   18.5379   41.2031 H         1 <0>         0.0600 
     41 H9         50.7442   19.8893   40.5144 H         1 <0>         0.0600 
     42 H10        52.0668   19.8523   38.4327 H         1 <0>         0.0600 
     43 H11        53.1376   18.5189   39.1027 H         1 <0>         0.0600 
     44 H12        55.6610   21.6098   40.7460 H         1 <0>         0.0600 
     45 H13        55.3470   20.5897   39.3576 H         1 <0>         0.0600 
     46 H14        53.5454   21.3682   37.5995 H         1 <0>         0.0600 
     47 H15        52.7418   22.8998   37.8389 H         1 <0>         0.0600 
     48 H16        60.6181   22.5190   35.7034 H         1 <0>         0.0600 
     49 H17        59.6493   24.0628   35.7996 H         1 <0>         0.0600 
     50 H18        59.2594   23.6439   38.2502 H         1 <0>         0.0600 
     51 H19        60.1523   22.0564   38.1547 H         1 <0>         0.0600 
     52 H20        56.6149   23.3721   39.2730 H         1 <0>         0.0600 
     53 H21        57.4121   21.8347   39.0326 H         1 <0>         0.0600 
     54 H22        54.8619   24.1210   37.4935 H         1 <0>         0.0600 
     55 H23        54.5596   23.0435   36.1496 H         1 <0>         0.0600 
     56 H24        56.8387   22.9849   35.5374 H         1 <0>         0.0600 
     57 H25        57.3174   24.0425   36.8375 H         1 <0>         0.0600 
     58 H26        53.7963   19.9232   41.0647 H         1 <0>         0.0600 
     59 H27        54.2038   23.3374   39.8244 H         1 <0>         0.0600 
     60 H28        59.6516   19.1807   36.0233 H         1 <0>         0.3800 
     61 H29        60.5086   20.7085   36.0867 H         1 <0>         0.3800 
     62 H30        56.0304   21.4518   37.1365 H         1 <0>         0.2900 
     63 H31        53.1040   29.8294   41.0120 H         1 <0>         0.4286 
@<TRIPOS>BOND
     1    1   22 1    
     2    1   33 1    
     3    1   34 1    
     4    1   35 1    
     5    2    4 ar   
     6    2   15 ar   
     7    2   36 1    
     8    3    5 ar   
     9    3   15 ar   
    10    3   37 1    
    11    4   16 ar   
    12    4   38 1    
    13    5   16 ar   
    14    5   39 1    
    15    6    7 1    
    16    6   17 1    
    17    6   40 1    
    18    6   41 1    
    19    7   17 1    
    20    7   42 1    
    21    7   43 1    
    22    8   12 1    
    23    8   18 1    
    24    8   44 1    
    25    8   45 1    
    26    9   13 1    
    27    9   18 1    
    28    9   46 1    
    29    9   47 1    
    30   10   11 1    
    31   10   21 1    
    32   10   48 1    
    33   10   49 1    
    34   11   21 1    
    35   11   50 1    
    36   11   51 1    
    37   12   25 1    
    38   12   52 1    
    39   12   53 1    
    40   13   25 1    
    41   13   54 1    
    42   13   55 1    
    43   14   21 1    
    44   14   25 1    
    45   14   56 1    
    46   14   57 1    
    47   15   19 1    
    48   16   22 1    
    49   17   26 1    
    50   17   58 1    
    51   18   26 1    
    52   18   59 1    
    53   19   26 am   BACKBONE|DICT|INTERRES
    54   19   28 2    
    55   20   21 1    
    56   20   24 am   BACKBONE|DICT|INTERRES
    57   20   29 2    
    58   22   23 1    
    59   22   27 1    
    60   23   30 1    
    61   23   31 1    
    62   23   32 1    
    63   24   60 1    
    64   24   61 1    
    65   25   62 1    
    66   27   63 1    
@<TRIPOS>SUBSTRUCTURE
     1 <0>         1 GROUP             0       ****    0 ROOT    
@<TRIPOS>MOLECULE
A49_2_3FRJ
63   66    1
SMALL
USER_CHARGES


@<TRIPOS>ATOM
      1 C1         51.8683   28.8112   39.0597 C.3       1 <0>        -0.1800 
      2 C2         51.0446   24.5513   39.7356 C.ar      1 <0>        -0.1150 
      3 C3         52.7393   24.6087   41.4862 C.ar      1 <0>        -0.1150 
      4 C4         51.0746   25.9560   39.6614 C.ar      1 <0>        -0.1150 
      5 C5         52.7734   26.0095   41.4085 C.ar      1 <0>        -0.1150 
      6 C6         51.7418   19.2874   40.5706 C.3       1 <0>        -0.1200 
      7 C7         52.5269   19.2807   39.2904 C.3       1 <0>        -0.1200 
      8 C8         55.3094   21.5502   39.6090 C.3       1 <0>        -0.1200 
      9 C9         53.6077   22.3171   37.9308 C.3       1 <0>        -0.1200 
     10 C10        59.7015   23.1555   36.1312 C.3       1 <0>        -0.1200 
     11 C11        59.4831   22.9141   37.5948 C.3       1 <0>        -0.1200 
     12 C12        56.3958   22.2938   38.8141 C.3       1 <0>         0.1500 
     13 C13        54.7288   23.0268   37.1562 C.3       1 <0>         0.1500 
     14 C14        57.1042   22.9856   36.5200 C.3       1 <0>         0.1500 
     15 C15        51.8808   23.8741   40.6437 C.ar      1 <0>        -0.1150 
     16 C16        51.9396   26.7019   40.4974 C.ar      1 <0>        -0.1150 
     17 C17        52.9339   20.2115   40.4139 C.3       1 <0>        -0.0149 
     18 C18        53.9386   22.2388   39.4335 C.3       1 <0>         0.0100 
     19 C19        51.8234   22.3848   40.7703 C.2       1 <0>         0.6150 
     20 C20        58.5271   20.8439   36.4398 C.2       1 <0>         0.5000 
     21 C21        58.4975   22.3472   36.6049 C.3       1 <0>         0.0000 
     22 C22        51.9391   28.2324   40.4759 C.3       1 <0>         0.3800 
     23 C23        50.8129   28.7838   41.3866 C.3       1 <0>         0.6171 
     24 N1         59.7088   20.2816   36.1711 N.am      1 <0>        -0.7600 
     25 N2         56.0456   22.3723   37.3701 N.4       1 <0>        -0.1000 
     26 N3         52.8156   21.6386   40.2032 N.am      1 <0>        -0.1151 
     27 O1         53.1552   28.7464   40.9706 O.3       1 <0>        -0.6936 
     28 O2         50.8913   21.9202   41.4226 O.2       1 <0>        -0.5000 
     29 O3         57.5274   20.1456   36.5704 O.2       1 <0>        -0.5000 
     30 F1         49.6180   28.4438   40.9020 F         1 <0>        -0.2057 
     31 F2         50.8787   30.1138   41.4603 F         1 <0>        -0.2057 
     32 F3         50.9235   28.2793   42.6152 F         1 <0>        -0.2057 
     33 H1         50.9234   28.6047   38.5713 H         1 <0>         0.0600 
     34 H2         51.9810   29.8944   39.0674 H         1 <0>         0.0600 
     35 H3         52.6681   28.3974   38.4482 H         1 <0>         0.0600 
     36 H4         50.3639   23.9969   39.1055 H         1 <0>         0.1150 
     37 H5         53.3726   24.1000   42.2013 H         1 <0>         0.1150 
     38 H6         50.4127   26.4553   38.9711 H         1 <0>         0.1150 
     39 H7         53.4326   26.5434   42.0797 H         1 <0>         0.1150 
     40 H8         51.8612   18.4466   41.2446 H         1 <0>         0.0600 
     41 H9         50.7295   19.6731   40.5121 H         1 <0>         0.0600 
     42 H10        52.0322   19.7004   38.4159 H         1 <0>         0.0600 
     43 H11        53.1863   18.4429   39.0871 H         1 <0>         0.0600 
     44 H12        55.5851   21.5262   40.6623 H         1 <0>         0.0600 
     45 H13        55.2767   20.5140   39.2683 H         1 <0>         0.0600 
     46 H14        53.4684   21.3177   37.5189 H         1 <0>         0.0600 
     47 H15        52.6673   22.8448   37.7742 H         1 <0>         0.0600 
     48 H16        60.5464   22.6599   35.6591 H         1 <0>         0.0600 
     49 H17        59.5206   24.1649   35.7703 H         1 <0>         0.0600 
     50 H18        59.1499   23.7527   38.2010 H         1 <0>         0.0600 
     51 H19        60.1270   22.2076   38.1136 H         1 <0>         0.0600 
     52 H20        56.5415   23.2973   39.2157 H         1 <0>         0.0600 
     53 H21        57.3349   21.7597   38.9521 H         1 <0>         0.0600 
     54 H22        54.7870   24.0713   37.4617 H         1 <0>         0.0600 
     55 H23        54.4868   23.0304   36.0906 H         1 <0>         0.0600 
     56 H24        56.7848   22.9676   35.4744 H         1 <0>         0.0600 
     57 H25        57.1953   24.0348   36.7959 H         1 <0>         0.0600 
     58 H26        53.7791   19.9059   41.0269 H         1 <0>         0.0600 
     59 H27        54.1202   23.2561   39.7668 H         1 <0>         0.0600 
     60 H28        59.7505   19.2830   36.0245 H         1 <0>         0.3800 
     61 H29        60.5339   20.8530   36.0803 H         1 <0>         0.3800 
     62 H30        55.9645   21.4167   37.0435 H         1 <0>         0.2900 
     63 H31        53.0822   28.6747   41.9129 H         1 <0>         0.4286 
@<TRIPOS>BOND
     1    1   22 1    
     2    1   33 1    
     3    1   34 1    
     4    1   35 1    
     5    2    4 ar   
     6    2   15 ar   
     7    2   36 1    
     8    3    5 ar   
     9    3   15 ar   
    10    3   37 1    
    11    4   16 ar   
    12    4   38 1    
    13    5   16 ar   
    14    5   39 1    
    15    6    7 1    
    16    6   17 1    
    17    6   40 1    
    18    6   41 1    
    19    7   17 1    
    20    7   42 1    
    21    7   43 1    
    22    8   12 1    
    23    8   18 1    
    24    8   44 1    
    25    8   45 1    
    26    9   13 1    
    27    9   18 1    
    28    9   46 1    
    29    9   47 1    
    30   10   11 1    
    31   10   21 1    
    32   10   48 1    
    33   10   49 1    
    34   11   21 1    
    35   11   50 1    
    36   11   51 1    
    37   12   25 1    
    38   12   52 1    
    39   12   53 1    
    40   13   25 1    
    41   13   54 1    
    42   13   55 1    
    43   14   21 1    
    44   14   25 1    
    45   14   56 1    
    46   14   57 1    
    47   15   19 1    
    48   16   22 1    
    49   17   26 1    
    50   17   58 1    
    51   18   26 1    
    52   18   59 1    
    53   19   26 am   BACKBONE|DICT|INTERRES
    54   19   28 2    
    55   20   21 1    
    56   20   24 am   BACKBONE|DICT|INTERRES
    57   20   29 2    
    58   22   23 1    
    59   22   27 1    
    60   23   30 1    
    61   23   31 1    
    62   23   32 1    
    63   24   60 1    
    64   24   61 1    
    65   25   62 1    
    66   27   63 1    
@<TRIPOS>SUBSTRUCTURE
     1 <0>         1 GROUP             0       ****    0 ROOT    
@<TRIPOS>MOLECULE
A49_2_3FRJ
63   66    1
SMALL
USER_CHARGES


@<TRIPOS>ATOM
      1 C1         53.7031   28.4430   40.7889 C.3       1 <0>        -0.1800 
      2 C2         51.5140   24.3706   39.6881 C.ar      1 <0>        -0.1150 
      3 C3         52.7718   24.3156   41.7723 C.ar      1 <0>        -0.1150 
      4 C4         51.5263   25.7781   39.7227 C.ar      1 <0>        -0.1150 
      5 C5         52.7729   25.7180   41.8122 C.ar      1 <0>        -0.1150 
      6 C6         52.1234   19.1118   40.0324 C.3       1 <0>        -0.1200 
      7 C7         52.9225   19.2737   38.7718 C.3       1 <0>        -0.1200 
      8 C8         55.6254   21.6471   39.5370 C.3       1 <0>        -0.1200 
      9 C9         53.9426   22.3628   37.7896 C.3       1 <0>        -0.1200 
     10 C10        60.0053   23.0276   35.8823 C.3       1 <0>        -0.1200 
     11 C11        59.9182   22.8606   37.3703 C.3       1 <0>        -0.1200 
     12 C12        56.6850   22.4883   38.8151 C.3       1 <0>         0.1500 
     13 C13        55.0566   23.1396   37.0745 C.3       1 <0>         0.1500 
     14 C14        57.4689   23.1342   36.5435 C.3       1 <0>         0.1500 
     15 C15        52.1425   23.6383   40.7139 C.ar      1 <0>        -0.1150 
     16 C16        52.1608   26.4693   40.7847 C.ar      1 <0>        -0.1150 
     17 C17        53.2898   20.0734   40.0091 C.3       1 <0>        -0.0149 
     18 C18        54.2195   22.2401   39.3014 C.3       1 <0>         0.0100 
     19 C19        52.1487   22.1440   40.7013 C.2       1 <0>         0.6150 
     20 C20        58.6682   20.8435   36.4129 C.2       1 <0>         0.5000 
     21 C21        58.7892   22.3530   36.5132 C.3       1 <0>         0.0000 
     22 C22        52.2281   27.9983   40.8678 C.3       1 <0>         0.3800 
     23 C23        51.4129   28.7461   39.7776 C.3       1 <0>         0.6171 
     24 N1         59.7865   20.1549   36.1717 N.am      1 <0>        -0.7600 
     25 N2         56.3847   22.5395   37.3604 N.4       1 <0>        -0.1000 
     26 N3         53.1211   21.5097   39.9867 N.am      1 <0>        -0.1151 
     27 O1         51.7199   28.4436   42.1155 O.3       1 <0>        -0.6936 
     28 O2         51.2872   21.5763   41.3699 O.2       1 <0>        -0.5000 
     29 O3         57.6064   20.2472   36.5701 O.2       1 <0>        -0.5000 
     30 F1         51.5397   30.0642   39.9268 F         1 <0>        -0.2057 
     31 F2         50.1184   28.4343   39.8234 F         1 <0>        -0.2057 
     32 F3         51.8787   28.4427   38.5705 F         1 <0>        -0.2057 
     33 H1         54.1490   28.1514   39.8378 H         1 <0>         0.0600 
     34 H2         53.7864   29.5254   40.8734 H         1 <0>         0.0600 
     35 H3         54.3129   28.0092   41.5822 H         1 <0>         0.0600 
     36 H4         51.0205   23.8583   38.8742 H         1 <0>         0.1150 
     37 H5         53.2537   23.7632   42.5671 H         1 <0>         0.1150 
     38 H6         51.0298   26.2976   38.9193 H         1 <0>         0.1150 
     39 H7         53.2555   26.2143   42.6424 H         1 <0>         0.1150 
     40 H8         52.2489   18.1804   40.5702 H         1 <0>         0.0600 
     41 H9         51.1082   19.4970   40.0133 H         1 <0>         0.0600 
     42 H10        52.4114   19.7692   37.9486 H         1 <0>         0.0600 
     43 H11        53.5835   18.4594   38.4852 H         1 <0>         0.0600 
     44 H12        55.8482   21.6077   40.6042 H         1 <0>         0.0600 
     45 H13        55.6907   20.6263   39.1601 H         1 <0>         0.0600 
     46 H14        53.8732   21.3737   37.3402 H         1 <0>         0.0600 
     47 H15        52.9833   22.8493   37.6125 H         1 <0>         0.0600 
     48 H16        60.7642   22.4436   35.3707 H         1 <0>         0.0600 
     49 H17        59.8672   24.0293   35.4806 H         1 <0>         0.0600 
     50 H18        59.7230   23.7391   37.9764 H         1 <0>         0.0600 
     51 H19        60.5234   22.1090   37.8628 H         1 <0>         0.0600 
     52 H20        56.7271   23.4961   39.2305 H         1 <0>         0.0600 
     53 H21        57.6641   22.0406   38.9881 H         1 <0>         0.0600 
     54 H22        55.0407   24.1875   37.3723 H         1 <0>         0.0600 
     55 H23        54.8677   23.1203   35.9999 H         1 <0>         0.0600 
     56 H24        57.1221   23.2419   35.5155 H         1 <0>         0.0600 
     57 H25        57.6674   24.1432   36.9044 H         1 <0>         0.0600 
     58 H26        54.1341   19.7151   40.5963 H         1 <0>         0.0600 
     59 H27        54.3068   23.2557   39.6841 H         1 <0>         0.0600 
     60 H28        59.7330   19.1502   36.0817 H         1 <0>         0.3800 
     61 H29        60.6656   20.6351   36.0563 H         1 <0>         0.3800 
     62 H30        56.3420   21.5732   37.0528 H         1 <0>         0.2900 
     63 H31        52.4224   28.5239   42.7509 H         1 <0>         0.4286 
@<TRIPOS>BOND
     1    1   22 1    
     2    1   33 1    
     3    1   34 1    
     4    1   35 1    
     5    2    4 ar   
     6    2   15 ar   
     7    2   36 1    
     8    3    5 ar   
     9    3   15 ar   
    10    3   37 1    
    11    4   16 ar   
    12    4   38 1    
    13    5   16 ar   
    14    5   39 1    
    15    6    7 1    
    16    6   17 1    
    17    6   40 1    
    18    6   41 1    
    19    7   17 1    
    20    7   42 1    
    21    7   43 1    
    22    8   12 1    
    23    8   18 1    
    24    8   44 1    
    25    8   45 1    
    26    9   13 1    
    27    9   18 1    
    28    9   46 1    
    29    9   47 1    
    30   10   11 1    
    31   10   21 1    
    32   10   48 1    
    33   10   49 1    
    34   11   21 1    
    35   11   50 1    
    36   11   51 1    
    37   12   25 1    
    38   12   52 1    
    39   12   53 1    
    40   13   25 1    
    41   13   54 1    
    42   13   55 1    
    43   14   21 1    
    44   14   25 1    
    45   14   56 1    
    46   14   57 1    
    47   15   19 1    
    48   16   22 1    
    49   17   26 1    
    50   17   58 1    
    51   18   26 1    
    52   18   59 1    
    53   19   26 am   BACKBONE|DICT|INTERRES
    54   19   28 2    
    55   20   21 1    
    56   20   24 am   BACKBONE|DICT|INTERRES
    57   20   29 2    
    58   22   23 1    
    59   22   27 1    
    60   23   30 1    
    61   23   31 1    
    62   23   32 1    
    63   24   60 1    
    64   24   61 1    
    65   25   62 1    
    66   27   63 1    
@<TRIPOS>SUBSTRUCTURE
     1 <0>         1 GROUP             0       ****    0 ROOT    
@<TRIPOS>MOLECULE
A49_2_3FRJ
63   66    1
SMALL
USER_CHARGES


@<TRIPOS>ATOM
      1 C1         51.5075   29.1182   39.3030 C.3       1 <0>        -0.1800 
      2 C2         51.6358   24.7966   39.8770 C.ar      1 <0>        -0.1150 
      3 C3         52.9602   25.1003   41.8983 C.ar      1 <0>        -0.1150 
      4 C4         51.4953   26.1944   39.7619 C.ar      1 <0>        -0.1150 
      5 C5         52.8382   26.4936   41.7702 C.ar      1 <0>        -0.1150 
      6 C6         51.7619   19.7761   40.5703 C.3       1 <0>        -0.1200 
      7 C7         52.5550   19.6788   39.2983 C.3       1 <0>        -0.1200 
      8 C8         55.5567   21.8573   39.7308 C.3       1 <0>        -0.1200 
      9 C9         53.8601   22.4680   37.9736 C.3       1 <0>        -0.1200 
     10 C10        59.8928   23.0312   35.8776 C.3       1 <0>        -0.1200 
     11 C11        59.8466   22.9116   37.3704 C.3       1 <0>        -0.1200 
     12 C12        56.6481   22.5438   38.8918 C.3       1 <0>         0.1500 
     13 C13        54.9782   23.1318   37.1576 C.3       1 <0>         0.1500 
     14 C14        57.3646   23.0814   36.5683 C.3       1 <0>         0.1500 
     15 C15        52.3511   24.2463   40.9593 C.ar      1 <0>        -0.1150 
     16 C16        52.0804   27.0584   40.7191 C.ar      1 <0>        -0.1150 
     17 C17        53.0693   20.5369   40.4399 C.3       1 <0>        -0.0149 
     18 C18        54.1860   22.5189   39.4761 C.3       1 <0>         0.0100 
     19 C19        52.3896   22.7641   41.1810 C.2       1 <0>         0.6150 
     20 C20        58.6201   20.8409   36.4569 C.2       1 <0>         0.5000 
     21 C21        58.7090   22.3458   36.5561 C.3       1 <0>         0.0000 
     22 C22        51.8793   28.5786   40.6929 C.3       1 <0>         0.3800 
     23 C23        50.8076   29.0012   41.7393 C.3       1 <0>         0.6171 
     24 N1         59.7583   20.1673   36.2641 N.am      1 <0>        -0.7600 
     25 N2         56.3034   22.5175   37.4427 N.4       1 <0>        -0.1000 
     26 N3         53.0842   21.9785   40.3127 N.am      1 <0>        -0.1151 
     27 O1         53.0993   29.2434   40.9704 O.3       1 <0>        -0.6936 
     28 O2         51.7573   22.3317   42.1435 O.2       1 <0>        -0.5000 
     29 O3         57.5599   20.2320   36.5604 O.2       1 <0>        -0.5000 
     30 F1         51.0748   28.5189   42.9518 F         1 <0>        -0.2057 
     31 F2         49.6128   28.5330   41.3729 F         1 <0>        -0.2057 
     32 F3         50.7219   30.3300   41.8190 F         1 <0>        -0.2057 
     33 H1         50.5302   28.7684   38.9716 H         1 <0>         0.0600 
     34 H2         51.4651   30.2086   39.2934 H         1 <0>         0.0600 
     35 H3         52.2496   28.8126   38.5698 H         1 <0>         0.0600 
     36 H4         51.1504   24.1513   39.1595 H         1 <0>         0.1150 
     37 H5         53.5043   24.6908   42.7370 H         1 <0>         0.1150 
     38 H6         50.9045   26.5804   38.9463 H         1 <0>         0.1150 
     39 H7         53.2904   27.1309   42.5170 H         1 <0>         0.1150 
     40 H8         51.7479   18.9013   41.2187 H         1 <0>         0.0600 
     41 H9         50.8248   20.3275   40.5219 H         1 <0>         0.0600 
     42 H10        52.1072   20.1544   38.4290 H         1 <0>         0.0600 
     43 H11        53.0753   18.7448   39.0988 H         1 <0>         0.0600 
     44 H12        55.8145   21.9160   40.7888 H         1 <0>         0.0600 
     45 H13        55.5345   20.7981   39.4729 H         1 <0>         0.0600 
     46 H14        53.7563   21.4382   37.6355 H         1 <0>         0.0600 
     47 H15        52.9114   22.9651   37.7695 H         1 <0>         0.0600 
     48 H16        60.6524   22.4437   35.3707 H         1 <0>         0.0600 
     49 H17        59.7245   24.0166   35.4499 H         1 <0>         0.0600 
     50 H18        59.6398   23.8068   37.9467 H         1 <0>         0.0600 
     51 H19        60.5234   22.2132   37.8524 H         1 <0>         0.0600 
     52 H20        56.7869   23.5731   39.2246 H         1 <0>         0.0600 
     53 H21        57.5960   22.0335   39.0615 H         1 <0>         0.0600 
     54 H22        55.0089   24.2012   37.3701 H         1 <0>         0.0600 
     55 H23        54.7490   23.0329   36.0957 H         1 <0>         0.0600 
     56 H24        56.9954   23.1188   35.5415 H         1 <0>         0.0600 
     57 H25        57.5471   24.1101   36.8708 H         1 <0>         0.0600 
     58 H26        53.8796   20.1184   41.0354 H         1 <0>         0.0600 
     59 H27        54.3518   23.5701   39.7135 H         1 <0>         0.0600 
     60 H28        59.7239   19.1609   36.1765 H         1 <0>         0.3800 
     61 H29        60.6337   20.6609   36.1752 H         1 <0>         0.3800 
     62 H30        56.2411   21.5388   37.1818 H         1 <0>         0.2900 
     63 H31        52.9232   30.1745   41.0768 H         1 <0>         0.4286 
@<TRIPOS>BOND
     1    1   22 1    
     2    1   33 1    
     3    1   34 1    
     4    1   35 1    
     5    2    4 ar   
     6    2   15 ar   
     7    2   36 1    
     8    3    5 ar   
     9    3   15 ar   
    10    3   37 1    
    11    4   16 ar   
    12    4   38 1    
    13    5   16 ar   
    14    5   39 1    
    15    6    7 1    
    16    6   17 1    
    17    6   40 1    
    18    6   41 1    
    19    7   17 1    
    20    7   42 1    
    21    7   43 1    
    22    8   12 1    
    23    8   18 1    
    24    8   44 1    
    25    8   45 1    
    26    9   13 1    
    27    9   18 1    
    28    9   46 1    
    29    9   47 1    
    30   10   11 1    
    31   10   21 1    
    32   10   48 1    
    33   10   49 1    
    34   11   21 1    
    35   11   50 1    
    36   11   51 1    
    37   12   25 1    
    38   12   52 1    
    39   12   53 1    
    40   13   25 1    
    41   13   54 1    
    42   13   55 1    
    43   14   21 1    
    44   14   25 1    
    45   14   56 1    
    46   14   57 1    
    47   15   19 1    
    48   16   22 1    
    49   17   26 1    
    50   17   58 1    
    51   18   26 1    
    52   18   59 1    
    53   19   26 am   BACKBONE|DICT|INTERRES
    54   19   28 2    
    55   20   21 1    
    56   20   24 am   BACKBONE|DICT|INTERRES
    57   20   29 2    
    58   22   23 1    
    59   22   27 1    
    60   23   30 1    
    61   23   31 1    
    62   23   32 1    
    63   24   60 1    
    64   24   61 1    
    65   25   62 1    
    66   27   63 1    
@<TRIPOS>SUBSTRUCTURE
     1 <0>         1 GROUP             0       ****    0 ROOT    
@<TRIPOS>MOLECULE
A49_2_3FRJ
63   66    1
SMALL
USER_CHARGES


@<TRIPOS>ATOM
      1 C1         52.2019   28.6918   38.9724 C.3       1 <0>        -0.1800 
      2 C2         52.6006   24.5457   41.6679 C.ar      1 <0>        -0.1150 
      3 C3         51.5810   24.4286   39.4542 C.ar      1 <0>        -0.1150 
      4 C4         52.6092   25.9466   41.5871 C.ar      1 <0>        -0.1150 
      5 C5         51.5782   25.8331   39.3803 C.ar      1 <0>        -0.1150 
      6 C6         52.0929   19.2525   40.2263 C.3       1 <0>        -0.1200 
      7 C7         52.9220   19.2867   38.9725 C.3       1 <0>        -0.1200 
      8 C8         55.6301   21.7476   39.5965 C.3       1 <0>        -0.1200 
      9 C9         53.9832   22.3089   37.7725 C.3       1 <0>        -0.1200 
     10 C10        60.0650   23.1686   35.8824 C.3       1 <0>        -0.1200 
     11 C11        59.9266   23.2432   37.3700 C.3       1 <0>        -0.1200 
     12 C12        56.7030   22.5530   38.8424 C.3       1 <0>         0.1500 
     13 C13        55.0886   23.0885   37.0543 C.3       1 <0>         0.1500 
     14 C14        57.4866   23.2000   36.5677 C.3       1 <0>         0.1500 
     15 C15        52.1039   23.7847   40.5932 C.ar      1 <0>        -0.1150 
     16 C16        52.1063   26.6055   40.4412 C.ar      1 <0>        -0.1150 
     17 C17        53.2740   20.1935   40.1355 C.3       1 <0>        -0.0149 
     18 C18        54.2201   22.3050   39.2946 C.3       1 <0>         0.0100 
     19 C19        52.1294   22.2938   40.6774 C.2       1 <0>         0.6150 
     20 C20        58.8942   21.0419   36.6079 C.2       1 <0>         0.5000 
     21 C21        58.8664   22.5386   36.5760 C.3       1 <0>         0.0000 
     22 C22        52.1193   28.1345   40.3956 C.3       1 <0>         0.3800 
     23 C23        50.9104   28.7100   41.1831 C.3       1 <0>         0.6171 
     24 N1         58.0563   20.4435   35.7709 N.am      1 <0>        -0.7600 
     25 N2         56.4322   22.5409   37.3783 N.4       1 <0>        -0.1000 
     26 N3         53.1083   21.6216   40.0075 N.am      1 <0>        -0.1151 
     27 O1         53.3069   28.6261   40.9705 O.3       1 <0>        -0.6936 
     28 O2         51.2693   21.7570   41.3705 O.2       1 <0>        -0.5000 
     29 O3         59.6509   20.3953   37.3259 O.2       1 <0>        -0.5000 
     30 F1         50.9257   30.0421   41.2049 F         1 <0>        -0.2057 
     31 F2         50.9150   28.2692   42.4424 F         1 <0>        -0.2057 
     32 F3         49.7739   28.3160   40.6062 F         1 <0>        -0.2057 
     33 H1         51.3235   28.4690   38.3795 H         1 <0>         0.0600 
     34 H2         52.3075   29.7776   38.9756 H         1 <0>         0.0600 
     35 H3         53.0715   28.2778   38.4632 H         1 <0>         0.0600 
     36 H4         52.9853   24.0632   42.5576 H         1 <0>         0.1150 
     37 H5         51.1764   23.8484   38.6376 H         1 <0>         0.1150 
     38 H6         52.9976   26.5066   42.4252 H         1 <0>         0.1150 
     39 H7         51.1646   26.2960   38.4988 H         1 <0>         0.1150 
     40 H8         52.2142   18.4434   40.9344 H         1 <0>         0.0600 
     41 H9         51.0763   19.6293   40.1342 H         1 <0>         0.0600 
     42 H10        52.4416   19.7163   38.0964 H         1 <0>         0.0600 
     43 H11        53.5773   18.4437   38.7754 H         1 <0>         0.0600 
     44 H12        55.8273   21.7810   40.6690 H         1 <0>         0.0600 
     45 H13        55.7110   20.7028   39.2944 H         1 <0>         0.0600 
     46 H14        53.9648   21.2904   37.3863 H         1 <0>         0.0600 
     47 H15        53.0133   22.7450   37.5334 H         1 <0>         0.0600 
     48 H16        60.8542   22.5258   35.5007 H         1 <0>         0.0600 
     49 H17        59.9067   24.0846   35.3193 H         1 <0>         0.0600 
     50 H18        59.6812   24.2197   37.7689 H         1 <0>         0.0600 
     51 H19        60.5483   22.6314   38.0082 H         1 <0>         0.0600 
     52 H20        56.7343   23.5807   39.2091 H         1 <0>         0.0600 
     53 H21        57.6827   22.1218   39.0513 H         1 <0>         0.0600 
     54 H22        55.0404   24.1424   37.3297 H         1 <0>         0.0600 
     55 H23        54.9162   23.0372   35.9781 H         1 <0>         0.0600 
     56 H24        57.1548   23.2502   35.5299 H         1 <0>         0.0600 
     57 H25        57.5949   24.2274   36.9113 H         1 <0>         0.0600 
     58 H26        54.1068   19.8786   40.7637 H         1 <0>         0.0600 
     59 H27        54.2851   23.3468   39.6069 H         1 <0>         0.0600 
     60 H28        58.1218   19.4415   35.6396 H         1 <0>         0.3800 
     61 H29        57.5343   20.9783   35.0937 H         1 <0>         0.3800 
     62 H30        56.4211   21.5703   37.0958 H         1 <0>         0.2900 
     63 H31        53.2361   28.4447   41.8975 H         1 <0>         0.4286 
@<TRIPOS>BOND
     1    1   22 1    
     2    1   33 1    
     3    1   34 1    
     4    1   35 1    
     5    2    4 ar   
     6    2   15 ar   
     7    2   36 1    
     8    3    5 ar   
     9    3   15 ar   
    10    3   37 1    
    11    4   16 ar   
    12    4   38 1    
    13    5   16 ar   
    14    5   39 1    
    15    6    7 1    
    16    6   17 1    
    17    6   40 1    
    18    6   41 1    
    19    7   17 1    
    20    7   42 1    
    21    7   43 1    
    22    8   12 1    
    23    8   18 1    
    24    8   44 1    
    25    8   45 1    
    26    9   13 1    
    27    9   18 1    
    28    9   46 1    
    29    9   47 1    
    30   10   11 1    
    31   10   21 1    
    32   10   48 1    
    33   10   49 1    
    34   11   21 1    
    35   11   50 1    
    36   11   51 1    
    37   12   25 1    
    38   12   52 1    
    39   12   53 1    
    40   13   25 1    
    41   13   54 1    
    42   13   55 1    
    43   14   21 1    
    44   14   25 1    
    45   14   56 1    
    46   14   57 1    
    47   15   19 1    
    48   16   22 1    
    49   17   26 1    
    50   17   58 1    
    51   18   26 1    
    52   18   59 1    
    53   19   26 am   BACKBONE|DICT|INTERRES
    54   19   28 2    
    55   20   21 1    
    56   20   24 am   BACKBONE|DICT|INTERRES
    57   20   29 2    
    58   22   23 1    
    59   22   27 1    
    60   23   30 1    
    61   23   31 1    
    62   23   32 1    
    63   24   60 1    
    64   24   61 1    
    65   25   62 1    
    66   27   63 1    
@<TRIPOS>SUBSTRUCTURE
     1 <0>         1 GROUP             0       ****    0 ROOT    
@<TRIPOS>MOLECULE
A49_2_3FRJ
63   66    1
SMALL
USER_CHARGES


@<TRIPOS>ATOM
      1 C1         53.6366   28.5102   40.7345 C.3       1 <0>        -0.1800 
      2 C2         51.5239   24.4231   39.6703 C.ar      1 <0>        -0.1150 
      3 C3         52.7517   24.3699   41.7727 C.ar      1 <0>        -0.1150 
      4 C4         51.5218   25.8312   39.7117 C.ar      1 <0>        -0.1150 
      5 C5         52.7398   25.7718   41.8199 C.ar      1 <0>        -0.1150 
      6 C6         52.1235   19.1605   40.0336 C.3       1 <0>        -0.1200 
      7 C7         52.9233   19.3151   38.7724 C.3       1 <0>        -0.1200 
      8 C8         55.6311   21.7086   39.5426 C.3       1 <0>        -0.1200 
      9 C9         53.9546   22.3927   37.7737 C.3       1 <0>        -0.1200 
     10 C10        60.0188   23.0307   35.8820 C.3       1 <0>        -0.1200 
     11 C11        59.9227   22.8652   37.3702 C.3       1 <0>        -0.1200 
     12 C12        56.6944   22.5357   38.8088 C.3       1 <0>         0.1500 
     13 C13        55.0680   23.1713   37.0620 C.3       1 <0>         0.1500 
     14 C14        57.4798   23.1489   36.5272 C.3       1 <0>         0.1500 
     15 C15        52.1427   23.6912   40.7032 C.ar      1 <0>        -0.1150 
     16 C16        52.1300   26.5221   40.7900 C.ar      1 <0>        -0.1150 
     17 C17        53.2909   20.1228   40.0044 C.3       1 <0>        -0.0149 
     18 C18        54.2218   22.2887   39.2882 C.3       1 <0>         0.0100 
     19 C19        52.1542   22.1969   40.6931 C.2       1 <0>         0.6150 
     20 C20        58.6701   20.8525   36.4104 C.2       1 <0>         0.5000 
     21 C21        58.7970   22.3618   36.5071 C.3       1 <0>         0.0000 
     22 C22        52.1726   28.0497   40.8894 C.3       1 <0>         0.3800 
     23 C23        51.2842   28.8024   39.8605 C.3       1 <0>         0.6171 
     24 N1         59.7852   20.1589   36.1707 N.am      1 <0>        -0.7600 
     25 N2         56.3944   22.5695   37.3532 N.4       1 <0>        -0.1000 
     26 N3         53.1229   21.5598   39.9754 N.am      1 <0>        -0.1151 
     27 O1         51.7116   28.4651   42.1676 O.3       1 <0>        -0.6936 
     28 O2         51.2998   21.6297   41.3705 O.2       1 <0>        -0.5000 
     29 O3         57.6063   20.2611   36.5702 O.2       1 <0>        -0.5000 
     30 F1         51.7236   28.5796   38.6230 F         1 <0>        -0.2057 
     31 F2         51.3419   30.1165   40.0719 F         1 <0>        -0.2057 
     32 F3         50.0084   28.4283   39.9401 F         1 <0>        -0.2057 
     33 H1         54.0315   28.2409   39.7547 H         1 <0>         0.0600 
     34 H2         53.7228   29.5921   40.8331 H         1 <0>         0.0600 
     35 H3         54.2924   28.0568   41.4775 H         1 <0>         0.0600 
     36 H4         51.0433   23.9093   38.8501 H         1 <0>         0.1150 
     37 H5         53.2257   23.8163   42.5700 H         1 <0>         0.1150 
     38 H6         51.0319   26.3549   38.9069 H         1 <0>         0.1150 
     39 H7         53.2046   26.2689   42.6590 H         1 <0>         0.1150 
     40 H8         52.2462   18.2263   40.5704 H         1 <0>         0.0600 
     41 H9         51.1079   19.5465   40.0128 H         1 <0>         0.0600 
     42 H10        52.4130   19.8065   37.9466 H         1 <0>         0.0600 
     43 H11        53.5777   18.4923   38.4918 H         1 <0>         0.0600 
     44 H12        55.8487   21.6907   40.6115 H         1 <0>         0.0600 
     45 H13        55.7041   20.6805   39.1867 H         1 <0>         0.0600 
     46 H14        53.8955   21.3994   37.3325 H         1 <0>         0.0600 
     47 H15        52.9932   22.8717   37.5855 H         1 <0>         0.0600 
     48 H16        60.7745   22.4430   35.3707 H         1 <0>         0.0600 
     49 H17        59.8887   24.0332   35.4793 H         1 <0>         0.0600 
     50 H18        59.7249   23.7453   37.9735 H         1 <0>         0.0600 
     51 H19        60.5235   22.1135   37.8663 H         1 <0>         0.0600 
     52 H20        56.7415   23.5484   39.2107 H         1 <0>         0.0600 
     53 H21        57.6707   22.0848   38.9871 H         1 <0>         0.0600 
     54 H22        55.0501   24.2172   37.3676 H         1 <0>         0.0600 
     55 H23        54.8808   23.1576   35.9873 H         1 <0>         0.0600 
     56 H24        57.1327   23.2434   35.4978 H         1 <0>         0.0600 
     57 H25        57.6849   24.1613   36.8749 H         1 <0>         0.0600 
     58 H26        54.1330   19.7667   40.5952 H         1 <0>         0.0600 
     59 H27        54.3007   23.3096   39.6580 H         1 <0>         0.0600 
     60 H28        59.7284   19.1536   36.0845 H         1 <0>         0.3800 
     61 H29        60.6659   20.6360   36.0571 H         1 <0>         0.3800 
     62 H30        56.3473   21.5998   37.0563 H         1 <0>         0.2900 
     63 H31        52.4432   28.5718   42.7688 H         1 <0>         0.4286 
@<TRIPOS>BOND
     1    1   22 1    
     2    1   33 1    
     3    1   34 1    
     4    1   35 1    
     5    2    4 ar   
     6    2   15 ar   
     7    2   36 1    
     8    3    5 ar   
     9    3   15 ar   
    10    3   37 1    
    11    4   16 ar   
    12    4   38 1    
    13    5   16 ar   
    14    5   39 1    
    15    6    7 1    
    16    6   17 1    
    17    6   40 1    
    18    6   41 1    
    19    7   17 1    
    20    7   42 1    
    21    7   43 1    
    22    8   12 1    
    23    8   18 1    
    24    8   44 1    
    25    8   45 1    
    26    9   13 1    
    27    9   18 1    
    28    9   46 1    
    29    9   47 1    
    30   10   11 1    
    31   10   21 1    
    32   10   48 1    
    33   10   49 1    
    34   11   21 1    
    35   11   50 1    
    36   11   51 1    
    37   12   25 1    
    38   12   52 1    
    39   12   53 1    
    40   13   25 1    
    41   13   54 1    
    42   13   55 1    
    43   14   21 1    
    44   14   25 1    
    45   14   56 1    
    46   14   57 1    
    47   15   19 1    
    48   16   22 1    
    49   17   26 1    
    50   17   58 1    
    51   18   26 1    
    52   18   59 1    
    53   19   26 am   BACKBONE|DICT|INTERRES
    54   19   28 2    
    55   20   21 1    
    56   20   24 am   BACKBONE|DICT|INTERRES
    57   20   29 2    
    58   22   23 1    
    59   22   27 1    
    60   23   30 1    
    61   23   31 1    
    62   23   32 1    
    63   24   60 1    
    64   24   61 1    
    65   25   62 1    
    66   27   63 1    
@<TRIPOS>SUBSTRUCTURE
     1 <0>         1 GROUP             0       ****    0 ROOT    
@<TRIPOS>MOLECULE
A49_2_3FRJ
63   66    1
SMALL
USER_CHARGES


@<TRIPOS>ATOM
      1 C1         52.1692   28.5586   39.2449 C.3       1 <0>        -0.1800 
      2 C2         51.4739   24.2749   39.5905 C.ar      1 <0>        -0.1150 
      3 C3         52.6419   24.3185   41.7328 C.ar      1 <0>        -0.1150 
      4 C4         51.4399   25.6795   39.5801 C.ar      1 <0>        -0.1150 
      5 C5         52.6164   25.7191   41.7175 C.ar      1 <0>        -0.1150 
      6 C6         52.1238   19.0791   40.0210 C.3       1 <0>        -0.1200 
      7 C7         52.9251   19.2468   38.7568 C.3       1 <0>        -0.1200 
      8 C8         55.6259   21.6430   39.5064 C.3       1 <0>        -0.1200 
      9 C9         53.9367   22.3385   37.7693 C.3       1 <0>        -0.1200 
     10 C10        60.0058   23.1494   35.8779 C.3       1 <0>        -0.1200 
     11 C11        59.8845   23.0043   37.3701 C.3       1 <0>        -0.1200 
     12 C12        56.6872   22.4708   38.7632 C.3       1 <0>         0.1500 
     13 C13        55.0445   23.1236   37.0492 C.3       1 <0>         0.1500 
     14 C14        57.4441   23.1468   36.4794 C.3       1 <0>         0.1500 
     15 C15        52.0850   23.5948   40.6627 C.ar      1 <0>        -0.1150 
     16 C16        52.0256   26.4169   40.6378 C.ar      1 <0>        -0.1150 
     17 C17        53.2916   20.0471   39.9910 C.3       1 <0>        -0.0149 
     18 C18        54.2115   22.2232   39.2798 C.3       1 <0>         0.0100 
     19 C19        52.1398   22.1027   40.6853 C.2       1 <0>         0.6150 
     20 C20        58.7580   20.9164   36.3874 C.2       1 <0>         0.5000 
     21 C21        58.8033   22.4305   36.4884 C.3       1 <0>         0.0000 
     22 C22        52.0056   27.9458   40.6504 C.3       1 <0>         0.3800 
     23 C23        50.7258   28.4637   41.3503 C.3       1 <0>         0.6171 
     24 N1         59.9148   20.2812   36.1751 N.am      1 <0>        -0.7600 
     25 N2         56.3776   22.5221   37.3087 N.4       1 <0>        -0.1000 
     26 N3         53.1169   21.4822   39.9664 N.am      1 <0>        -0.1151 
     27 O1         53.1140   28.4427   41.3692 O.3       1 <0>        -0.6936 
     28 O2         51.3008   21.5255   41.3696 O.2       1 <0>        -0.5000 
     29 O3         57.7233   20.2680   36.5123 O.2       1 <0>        -0.5000 
     30 F1         49.6463   28.1172   40.6471 F         1 <0>        -0.2057 
     31 F2         50.7518   29.7916   41.4630 F         1 <0>        -0.2057 
     32 F3         50.6198   27.9356   42.5687 F         1 <0>        -0.2057 
     33 H1         51.3273   28.3450   38.5831 H         1 <0>         0.0600 
     34 H2         52.2506   29.6463   39.3005 H         1 <0>         0.0600 
     35 H3         53.0750   28.1894   38.7585 H         1 <0>         0.0600 
     36 H4         51.0277   23.7208   38.7751 H         1 <0>         0.1150 
     37 H5         53.0973   23.8042   42.5686 H         1 <0>         0.1150 
     38 H6         50.9570   26.1788   38.7531 H         1 <0>         0.1150 
     39 H7         53.0534   26.2513   42.5503 H         1 <0>         0.1150 
     40 H8         52.2564   18.1525   40.5692 H         1 <0>         0.0600 
     41 H9         51.1098   19.4635   40.0010 H         1 <0>         0.0600 
     42 H10        52.4158   19.7446   37.9351 H         1 <0>         0.0600 
     43 H11        53.6032   18.4475   38.4686 H         1 <0>         0.0600 
     44 H12        55.8610   21.6199   40.5702 H         1 <0>         0.0600 
     45 H13        55.6914   20.6164   39.1464 H         1 <0>         0.0600 
     46 H14        53.8720   21.3473   37.3216 H         1 <0>         0.0600 
     47 H15        52.9724   22.8183   37.5916 H         1 <0>         0.0600 
     48 H16        60.7864   22.5827   35.3805 H         1 <0>         0.0600 
     49 H17        59.8348   24.1341   35.4507 H         1 <0>         0.0600 
     50 H18        59.6398   23.8928   37.9429 H         1 <0>         0.0600 
     51 H19        60.5235   22.2983   37.8881 H         1 <0>         0.0600 
     52 H20        56.7479   23.4792   39.1748 H         1 <0>         0.0600 
     53 H21        57.6624   22.0126   38.9288 H         1 <0>         0.0600 
     54 H22        55.0307   24.1667   37.3688 H         1 <0>         0.0600 
     55 H23        54.8425   23.1227   35.9774 H         1 <0>         0.0600 
     56 H24        57.1143   23.2434   35.4398 H         1 <0>         0.0600 
     57 H25        57.5988   24.1621   36.8410 H         1 <0>         0.0600 
     58 H26        54.1368   19.6939   40.5783 H         1 <0>         0.0600 
     59 H27        54.2860   23.2403   39.6610 H         1 <0>         0.0600 
     60 H28        59.9074   19.2746   36.0840 H         1 <0>         0.3800 
     61 H29        60.7787   20.7985   36.0989 H         1 <0>         0.3800 
     62 H30        56.3392   21.5599   36.9944 H         1 <0>         0.2900 
     63 H31        52.9033   28.4033   42.2984 H         1 <0>         0.4286 
@<TRIPOS>BOND
     1    1   22 1    
     2    1   33 1    
     3    1   34 1    
     4    1   35 1    
     5    2    4 ar   
     6    2   15 ar   
     7    2   36 1    
     8    3    5 ar   
     9    3   15 ar   
    10    3   37 1    
    11    4   16 ar   
    12    4   38 1    
    13    5   16 ar   
    14    5   39 1    
    15    6    7 1    
    16    6   17 1    
    17    6   40 1    
    18    6   41 1    
    19    7   17 1    
    20    7   42 1    
    21    7   43 1    
    22    8   12 1    
    23    8   18 1    
    24    8   44 1    
    25    8   45 1    
    26    9   13 1    
    27    9   18 1    
    28    9   46 1    
    29    9   47 1    
    30   10   11 1    
    31   10   21 1    
    32   10   48 1    
    33   10   49 1    
    34   11   21 1    
    35   11   50 1    
    36   11   51 1    
    37   12   25 1    
    38   12   52 1    
    39   12   53 1    
    40   13   25 1    
    41   13   54 1    
    42   13   55 1    
    43   14   21 1    
    44   14   25 1    
    45   14   56 1    
    46   14   57 1    
    47   15   19 1    
    48   16   22 1    
    49   17   26 1    
    50   17   58 1    
    51   18   26 1    
    52   18   59 1    
    53   19   26 am   BACKBONE|DICT|INTERRES
    54   19   28 2    
    55   20   21 1    
    56   20   24 am   BACKBONE|DICT|INTERRES
    57   20   29 2    
    58   22   23 1    
    59   22   27 1    
    60   23   30 1    
    61   23   31 1    
    62   23   32 1    
    63   24   60 1    
    64   24   61 1    
    65   25   62 1    
    66   27   63 1    
@<TRIPOS>SUBSTRUCTURE
     1 <0>         1 GROUP             0       ****    0 ROOT    
@<TRIPOS>MOLECULE
A49_2_3FRJ
63   66    1
SMALL
USER_CHARGES


@<TRIPOS>ATOM
      1 C1         51.5053   29.1444   39.3075 C.3       1 <0>        -0.1800 
      2 C2         52.9499   25.0728   41.8217 C.ar      1 <0>        -0.1150 
      3 C3         51.6038   24.8131   39.8091 C.ar      1 <0>        -0.1150 
      4 C4         52.8386   26.4696   41.7172 C.ar      1 <0>        -0.1150 
      5 C5         51.4779   26.2140   39.7155 C.ar      1 <0>        -0.1150 
      6 C6         51.8165   19.7353   40.5702 C.3       1 <0>        -0.1200 
      7 C7         52.5389   19.6813   39.2520 C.3       1 <0>        -0.1200 
      8 C8         55.5811   21.9015   39.7054 C.3       1 <0>        -0.1200 
      9 C9         53.8963   22.4853   37.9258 C.3       1 <0>        -0.1200 
     10 C10        59.9462   23.0252   35.8844 C.3       1 <0>        -0.1200 
     11 C11        59.8905   22.8494   37.3704 C.3       1 <0>        -0.1200 
     12 C12        56.6714   22.6112   38.8850 C.3       1 <0>         0.1500 
     13 C13        55.0160   23.1723   37.1279 C.3       1 <0>         0.1500 
     14 C14        57.4215   23.1432   36.5729 C.3       1 <0>         0.1500 
     15 C15        52.3196   24.2384   40.8787 C.ar      1 <0>        -0.1150 
     16 C16        52.0780   27.0585   40.6824 C.ar      1 <0>        -0.1150 
     17 C17        53.0988   20.5313   40.3765 C.3       1 <0>        -0.0149 
     18 C18        54.1998   22.5359   39.4332 C.3       1 <0>         0.0100 
     19 C19        52.3412   22.7537   41.0795 C.2       1 <0>         0.6150 
     20 C20        58.6024   20.8495   36.4200 C.2       1 <0>         0.5000 
     21 C21        58.7377   22.3545   36.5333 C.3       1 <0>         0.0000 
     22 C22        51.8807   28.5812   40.6845 C.3       1 <0>         0.3800 
     23 C23        50.8103   28.9860   41.7372 C.3       1 <0>         0.6171 
     24 N1         59.7156   20.1553   36.1706 N.am      1 <0>        -0.7600 
     25 N2         56.3465   22.5791   37.4310 N.4       1 <0>        -0.1000 
     26 N3         53.0929   21.9751   40.2527 N.am      1 <0>        -0.1151 
     27 O1         53.1000   29.2433   40.9704 O.3       1 <0>        -0.6936 
     28 O2         51.6470   22.3108   41.9926 O.2       1 <0>        -0.5000 
     29 O3         57.5330   20.2662   36.5705 O.2       1 <0>        -0.5000 
     30 F1         51.0881   28.4942   42.9417 F         1 <0>        -0.2057 
     31 F2         49.6186   28.5112   41.3707 F         1 <0>        -0.2057 
     32 F3         50.7115   30.3137   41.8281 F         1 <0>        -0.2057 
     33 H1         50.5243   28.8045   38.9792 H         1 <0>         0.0600 
     34 H2         51.4722   30.2347   39.3102 H         1 <0>         0.0600 
     35 H3         52.2438   28.8413   38.5700 H         1 <0>         0.0600 
     36 H4         53.4969   24.6440   42.6488 H         1 <0>         0.1150 
     37 H5         51.1076   24.1815   39.0857 H         1 <0>         0.1150 
     38 H6         53.3030   27.0896   42.4710 H         1 <0>         0.1150 
     39 H7         50.8847   26.6167   38.9103 H         1 <0>         0.1150 
     40 H8         51.8660   18.8505   41.2020 H         1 <0>         0.0600 
     41 H9         50.8592   20.2546   40.5738 H         1 <0>         0.0600 
     42 H10        52.0472   20.1741   38.4155 H         1 <0>         0.0600 
     43 H11        53.0706   18.7647   39.0051 H         1 <0>         0.0600 
     44 H12        55.8245   21.9626   40.7672 H         1 <0>         0.0600 
     45 H13        55.5837   20.8427   39.4437 H         1 <0>         0.0600 
     46 H14        53.8047   21.4544   37.5868 H         1 <0>         0.0600 
     47 H15        52.9422   22.9688   37.7125 H         1 <0>         0.0600 
     48 H16        60.7037   22.4432   35.3704 H         1 <0>         0.0600 
     49 H17        59.8104   24.0302   35.4904 H         1 <0>         0.0600 
     50 H18        59.7156   23.7259   37.9848 H         1 <0>         0.0600 
     51 H19        60.5234   22.1011   37.8334 H         1 <0>         0.0600 
     52 H20        56.7849   23.6433   39.2218 H         1 <0>         0.0600 
     53 H21        57.6287   22.1195   39.0646 H         1 <0>         0.0600 
     54 H22        55.0228   24.2402   37.3457 H         1 <0>         0.0600 
     55 H23        54.8046   23.0722   36.0624 H         1 <0>         0.0600 
     56 H24        57.0574   23.2434   35.5504 H         1 <0>         0.0600 
     57 H25        57.6446   24.1535   36.9134 H         1 <0>         0.0600 
     58 H26        53.9434   20.1173   40.9243 H         1 <0>         0.0600 
     59 H27        54.3455   23.5882   39.6755 H         1 <0>         0.0600 
     60 H28        59.6554   19.1516   36.0708 H         1 <0>         0.3800 
     61 H29        60.5987   20.6308   36.0641 H         1 <0>         0.3800 
     62 H30        56.2963   21.5999   37.1688 H         1 <0>         0.2900 
     63 H31        52.9234   30.1736   41.0825 H         1 <0>         0.4286 
@<TRIPOS>BOND
     1    1   22 1    
     2    1   33 1    
     3    1   34 1    
     4    1   35 1    
     5    2    4 ar   
     6    2   15 ar   
     7    2   36 1    
     8    3    5 ar   
     9    3   15 ar   
    10    3   37 1    
    11    4   16 ar   
    12    4   38 1    
    13    5   16 ar   
    14    5   39 1    
    15    6    7 1    
    16    6   17 1    
    17    6   40 1    
    18    6   41 1    
    19    7   17 1    
    20    7   42 1    
    21    7   43 1    
    22    8   12 1    
    23    8   18 1    
    24    8   44 1    
    25    8   45 1    
    26    9   13 1    
    27    9   18 1    
    28    9   46 1    
    29    9   47 1    
    30   10   11 1    
    31   10   21 1    
    32   10   48 1    
    33   10   49 1    
    34   11   21 1    
    35   11   50 1    
    36   11   51 1    
    37   12   25 1    
    38   12   52 1    
    39   12   53 1    
    40   13   25 1    
    41   13   54 1    
    42   13   55 1    
    43   14   21 1    
    44   14   25 1    
    45   14   56 1    
    46   14   57 1    
    47   15   19 1    
    48   16   22 1    
    49   17   26 1    
    50   17   58 1    
    51   18   26 1    
    52   18   59 1    
    53   19   26 am   BACKBONE|DICT|INTERRES
    54   19   28 2    
    55   20   21 1    
    56   20   24 am   BACKBONE|DICT|INTERRES
    57   20   29 2    
    58   22   23 1    
    59   22   27 1    
    60   23   30 1    
    61   23   31 1    
    62   23   32 1    
    63   24   60 1    
    64   24   61 1    
    65   25   62 1    
    66   27   63 1    
@<TRIPOS>SUBSTRUCTURE
     1 <0>         1 GROUP             0       ****    0 ROOT    
@<TRIPOS>MOLECULE
A49_2_3FRJ
63   66    1
SMALL
USER_CHARGES


@<TRIPOS>ATOM
      1 C1         51.5053   29.1444   39.3075 C.3       1 <0>        -0.1800 
      2 C2         52.9499   25.0728   41.8217 C.ar      1 <0>        -0.1150 
      3 C3         51.6038   24.8131   39.8091 C.ar      1 <0>        -0.1150 
      4 C4         52.8386   26.4696   41.7172 C.ar      1 <0>        -0.1150 
      5 C5         51.4779   26.2140   39.7155 C.ar      1 <0>        -0.1150 
      6 C6         51.8165   19.7353   40.5702 C.3       1 <0>        -0.1200 
      7 C7         52.5389   19.6813   39.2520 C.3       1 <0>        -0.1200 
      8 C8         55.5811   21.9015   39.7054 C.3       1 <0>        -0.1200 
      9 C9         53.8963   22.4853   37.9258 C.3       1 <0>        -0.1200 
     10 C10        59.9462   23.0252   35.8844 C.3       1 <0>        -0.1200 
     11 C11        59.8905   22.8494   37.3704 C.3       1 <0>        -0.1200 
     12 C12        56.6714   22.6112   38.8850 C.3       1 <0>         0.1500 
     13 C13        55.0160   23.1723   37.1279 C.3       1 <0>         0.1500 
     14 C14        57.4215   23.1432   36.5729 C.3       1 <0>         0.1500 
     15 C15        52.3196   24.2384   40.8787 C.ar      1 <0>        -0.1150 
     16 C16        52.0780   27.0585   40.6824 C.ar      1 <0>        -0.1150 
     17 C17        53.0988   20.5313   40.3765 C.3       1 <0>        -0.0149 
     18 C18        54.1998   22.5359   39.4332 C.3       1 <0>         0.0100 
     19 C19        52.3412   22.7537   41.0795 C.2       1 <0>         0.6150 
     20 C20        58.6024   20.8495   36.4200 C.2       1 <0>         0.5000 
     21 C21        58.7377   22.3545   36.5333 C.3       1 <0>         0.0000 
     22 C22        51.8807   28.5812   40.6845 C.3       1 <0>         0.3800 
     23 C23        50.8103   28.9860   41.7372 C.3       1 <0>         0.6171 
     24 N1         59.7156   20.1553   36.1706 N.am      1 <0>        -0.7600 
     25 N2         56.3465   22.5791   37.4310 N.4       1 <0>        -0.1000 
     26 N3         53.0929   21.9751   40.2527 N.am      1 <0>        -0.1151 
     27 O1         53.1000   29.2433   40.9704 O.3       1 <0>        -0.6936 
     28 O2         51.6470   22.3108   41.9926 O.2       1 <0>        -0.5000 
     29 O3         57.5330   20.2662   36.5705 O.2       1 <0>        -0.5000 
     30 F1         51.0881   28.4942   42.9417 F         1 <0>        -0.2057 
     31 F2         49.6186   28.5112   41.3707 F         1 <0>        -0.2057 
     32 F3         50.7115   30.3137   41.8281 F         1 <0>        -0.2057 
     33 H1         50.5243   28.8045   38.9792 H         1 <0>         0.0600 
     34 H2         51.4722   30.2347   39.3102 H         1 <0>         0.0600 
     35 H3         52.2438   28.8413   38.5700 H         1 <0>         0.0600 
     36 H4         53.4969   24.6440   42.6488 H         1 <0>         0.1150 
     37 H5         51.1076   24.1815   39.0857 H         1 <0>         0.1150 
     38 H6         53.3030   27.0896   42.4710 H         1 <0>         0.1150 
     39 H7         50.8847   26.6167   38.9103 H         1 <0>         0.1150 
     40 H8         51.8660   18.8505   41.2020 H         1 <0>         0.0600 
     41 H9         50.8592   20.2546   40.5738 H         1 <0>         0.0600 
     42 H10        52.0472   20.1741   38.4155 H         1 <0>         0.0600 
     43 H11        53.0706   18.7647   39.0051 H         1 <0>         0.0600 
     44 H12        55.8245   21.9626   40.7672 H         1 <0>         0.0600 
     45 H13        55.5837   20.8427   39.4437 H         1 <0>         0.0600 
     46 H14        53.8047   21.4544   37.5868 H         1 <0>         0.0600 
     47 H15        52.9422   22.9688   37.7125 H         1 <0>         0.0600 
     48 H16        60.7037   22.4432   35.3704 H         1 <0>         0.0600 
     49 H17        59.8104   24.0302   35.4904 H         1 <0>         0.0600 
     50 H18        59.7156   23.7259   37.9848 H         1 <0>         0.0600 
     51 H19        60.5234   22.1011   37.8334 H         1 <0>         0.0600 
     52 H20        56.7849   23.6433   39.2218 H         1 <0>         0.0600 
     53 H21        57.6287   22.1195   39.0646 H         1 <0>         0.0600 
     54 H22        55.0228   24.2402   37.3457 H         1 <0>         0.0600 
     55 H23        54.8046   23.0722   36.0624 H         1 <0>         0.0600 
     56 H24        57.0574   23.2434   35.5504 H         1 <0>         0.0600 
     57 H25        57.6446   24.1535   36.9134 H         1 <0>         0.0600 
     58 H26        53.9434   20.1173   40.9243 H         1 <0>         0.0600 
     59 H27        54.3455   23.5882   39.6755 H         1 <0>         0.0600 
     60 H28        59.6554   19.1516   36.0708 H         1 <0>         0.3800 
     61 H29        60.5987   20.6308   36.0641 H         1 <0>         0.3800 
     62 H30        56.2963   21.5999   37.1688 H         1 <0>         0.2900 
     63 H31        52.9234   30.1736   41.0825 H         1 <0>         0.4286 
@<TRIPOS>BOND
     1    1   22 1    
     2    1   33 1    
     3    1   34 1    
     4    1   35 1    
     5    2    4 ar   
     6    2   15 ar   
     7    2   36 1    
     8    3    5 ar   
     9    3   15 ar   
    10    3   37 1    
    11    4   16 ar   
    12    4   38 1    
    13    5   16 ar   
    14    5   39 1    
    15    6    7 1    
    16    6   17 1    
    17    6   40 1    
    18    6   41 1    
    19    7   17 1    
    20    7   42 1    
    21    7   43 1    
    22    8   12 1    
    23    8   18 1    
    24    8   44 1    
    25    8   45 1    
    26    9   13 1    
    27    9   18 1    
    28    9   46 1    
    29    9   47 1    
    30   10   11 1    
    31   10   21 1    
    32   10   48 1    
    33   10   49 1    
    34   11   21 1    
    35   11   50 1    
    36   11   51 1    
    37   12   25 1    
    38   12   52 1    
    39   12   53 1    
    40   13   25 1    
    41   13   54 1    
    42   13   55 1    
    43   14   21 1    
    44   14   25 1    
    45   14   56 1    
    46   14   57 1    
    47   15   19 1    
    48   16   22 1    
    49   17   26 1    
    50   17   58 1    
    51   18   26 1    
    52   18   59 1    
    53   19   26 am   BACKBONE|DICT|INTERRES
    54   19   28 2    
    55   20   21 1    
    56   20   24 am   BACKBONE|DICT|INTERRES
    57   20   29 2    
    58   22   23 1    
    59   22   27 1    
    60   23   30 1    
    61   23   31 1    
    62   23   32 1    
    63   24   60 1    
    64   24   61 1    
    65   25   62 1    
    66   27   63 1    
@<TRIPOS>SUBSTRUCTURE
     1 <0>         1 GROUP             0       ****    0 ROOT    
@<TRIPOS>MOLECULE
A49_2_3FRJ
63   66    1
SMALL
USER_CHARGES


@<TRIPOS>ATOM
      1 C1         51.8665   28.9204   39.1824 C.3       1 <0>        -0.1800 
      2 C2         52.9215   24.8047   41.7674 C.ar      1 <0>        -0.1150 
      3 C3         51.5186   24.6172   39.7817 C.ar      1 <0>        -0.1150 
      4 C4         52.8864   26.2059   41.6591 C.ar      1 <0>        -0.1150 
      5 C5         51.4734   26.0213   39.6819 C.ar      1 <0>        -0.1150 
      6 C6         51.9785   19.4627   40.5691 C.3       1 <0>        -0.1200 
      7 C7         52.7325   19.4542   39.2686 C.3       1 <0>        -0.1200 
      8 C8         55.6154   21.8320   39.7202 C.3       1 <0>        -0.1200 
      9 C9         53.8994   22.3653   37.9483 C.3       1 <0>        -0.1200 
     10 C10        59.9189   23.0290   35.8821 C.3       1 <0>        -0.1200 
     11 C11        59.8653   22.8701   37.3708 C.3       1 <0>        -0.1200 
     12 C12        56.6663   22.5991   38.8974 C.3       1 <0>         0.1500 
     13 C13        54.9881   23.0990   37.1496 C.3       1 <0>         0.1500 
     14 C14        57.3902   23.1181   36.5710 C.3       1 <0>         0.1500 
     15 C15        52.2329   24.0088   40.8315 C.ar      1 <0>        -0.1150 
     16 C16        52.1517   26.8296   40.6249 C.ar      1 <0>        -0.1150 
     17 C17        53.2072   20.3449   40.3991 C.3       1 <0>        -0.0149 
     18 C18        54.2069   22.4052   39.4552 C.3       1 <0>         0.0100 
     19 C19        52.2328   22.5211   40.9846 C.2       1 <0>         0.6150 
     20 C20        58.6015   20.8434   36.4234 C.2       1 <0>         0.5000 
     21 C21        58.7199   22.3502   36.5363 C.3       1 <0>         0.0000 
     22 C22        52.0557   28.3583   40.5950 C.3       1 <0>         0.3800 
     23 C23        50.9298   28.8446   41.5464 C.3       1 <0>         0.6171 
     24 N1         59.7183   20.1575   36.1712 N.am      1 <0>        -0.7600 
     25 N2         56.3351   22.5452   37.4467 N.4       1 <0>        -0.1000 
     26 N3         53.1179   21.7836   40.2561 N.am      1 <0>        -0.1151 
     27 O1         53.2814   28.9546   40.9704 O.3       1 <0>        -0.6936 
     28 O2         51.4191   22.0438   41.7706 O.2       1 <0>        -0.5000 
     29 O3         57.5387   20.2486   36.5704 O.2       1 <0>        -0.5000 
     30 F1         49.7438   28.4440   41.0839 F         1 <0>        -0.2057 
     31 F2         50.9175   30.1753   41.6181 F         1 <0>        -0.2057 
     32 F3         51.0800   28.3484   42.7739 F         1 <0>        -0.2057 
     33 H1         50.9231   28.6300   38.7360 H         1 <0>         0.0600 
     34 H2         51.8870   30.0103   39.1745 H         1 <0>         0.0600 
     35 H3         52.6724   28.5678   38.5434 H         1 <0>         0.0600 
     36 H4         53.4718   24.3450   42.5734 H         1 <0>         0.1150 
     37 H5         50.9797   24.0117   39.0667 H         1 <0>         0.1150 
     38 H6         53.4003   26.8035   42.3991 H         1 <0>         0.1150 
     39 H7         50.8880   26.4545   38.8861 H         1 <0>         0.1150 
     40 H8         52.0716   18.5860   41.2028 H         1 <0>         0.0600 
     41 H9         50.9815   19.8949   40.5339 H         1 <0>         0.0600 
     42 H10        52.2219   19.9046   38.4195 H         1 <0>         0.0600 
     43 H11        53.3238   18.5710   39.0387 H         1 <0>         0.0600 
     44 H12        55.8579   21.8975   40.7821 H         1 <0>         0.0600 
     45 H13        55.6655   20.7777   39.4497 H         1 <0>         0.0600 
     46 H14        53.8442   21.3343   37.5984 H         1 <0>         0.0600 
     47 H15        52.9261   22.8155   37.7465 H         1 <0>         0.0600 
     48 H16        60.6750   22.4439   35.3705 H         1 <0>         0.0600 
     49 H17        59.7681   24.0262   35.4732 H         1 <0>         0.0600 
     50 H18        59.6733   23.7495   37.9784 H         1 <0>         0.0600 
     51 H19        60.5226   22.1438   37.8358 H         1 <0>         0.0600 
     52 H20        56.7320   23.6390   39.2288 H         1 <0>         0.0600 
     53 H21        57.6451   22.1533   39.0771 H         1 <0>         0.0600 
     54 H22        54.9631   24.1669   37.3706 H         1 <0>         0.0600 
     55 H23        54.7752   22.9976   36.0844 H         1 <0>         0.0600 
     56 H24        57.0153   23.1922   35.5505 H         1 <0>         0.0600 
     57 H25        57.5899   24.1385   36.8918 H         1 <0>         0.0600 
     58 H26        54.0649   19.9930   40.9700 H         1 <0>         0.0600 
     59 H27        54.3149   23.4578   39.7159 H         1 <0>         0.0600 
     60 H28        59.6625   19.1538   36.0658 H         1 <0>         0.3800 
     61 H29        60.5979   20.6390   36.0594 H         1 <0>         0.3800 
     62 H30        56.3082   21.5626   37.1931 H         1 <0>         0.2900 
     63 H31        53.1346   29.8930   41.0053 H         1 <0>         0.4286 
@<TRIPOS>BOND
     1    1   22 1    
     2    1   33 1    
     3    1   34 1    
     4    1   35 1    
     5    2    4 ar   
     6    2   15 ar   
     7    2   36 1    
     8    3    5 ar   
     9    3   15 ar   
    10    3   37 1    
    11    4   16 ar   
    12    4   38 1    
    13    5   16 ar   
    14    5   39 1    
    15    6    7 1    
    16    6   17 1    
    17    6   40 1    
    18    6   41 1    
    19    7   17 1    
    20    7   42 1    
    21    7   43 1    
    22    8   12 1    
    23    8   18 1    
    24    8   44 1    
    25    8   45 1    
    26    9   13 1    
    27    9   18 1    
    28    9   46 1    
    29    9   47 1    
    30   10   11 1    
    31   10   21 1    
    32   10   48 1    
    33   10   49 1    
    34   11   21 1    
    35   11   50 1    
    36   11   51 1    
    37   12   25 1    
    38   12   52 1    
    39   12   53 1    
    40   13   25 1    
    41   13   54 1    
    42   13   55 1    
    43   14   21 1    
    44   14   25 1    
    45   14   56 1    
    46   14   57 1    
    47   15   19 1    
    48   16   22 1    
    49   17   26 1    
    50   17   58 1    
    51   18   26 1    
    52   18   59 1    
    53   19   26 am   BACKBONE|DICT|INTERRES
    54   19   28 2    
    55   20   21 1    
    56   20   24 am   BACKBONE|DICT|INTERRES
    57   20   29 2    
    58   22   23 1    
    59   22   27 1    
    60   23   30 1    
    61   23   31 1    
    62   23   32 1    
    63   24   60 1    
    64   24   61 1    
    65   25   62 1    
    66   27   63 1    
@<TRIPOS>SUBSTRUCTURE
     1 <0>         1 GROUP             0       ****    0 ROOT    
@<TRIPOS>MOLECULE
A49_2_3FRJ
63   66    1
SMALL
USER_CHARGES


@<TRIPOS>ATOM
      1 C1         52.1782   28.7496   39.0727 C.3       1 <0>        -0.1800 
      2 C2         52.5065   24.5446   41.6859 C.ar      1 <0>        -0.1150 
      3 C3         51.4707   24.4680   39.4768 C.ar      1 <0>        -0.1150 
      4 C4         52.5262   25.9457   41.6237 C.ar      1 <0>        -0.1150 
      5 C5         51.4744   25.8748   39.4269 C.ar      1 <0>        -0.1150 
      6 C6         51.9066   19.2587   40.3509 C.3       1 <0>        -0.1200 
      7 C7         52.6706   19.2741   39.0556 C.3       1 <0>        -0.1200 
      8 C8         55.4660   21.6645   39.6051 C.3       1 <0>        -0.1200 
      9 C9         53.8283   22.2364   37.7805 C.3       1 <0>        -0.1200 
     10 C10        59.8952   23.0204   35.8782 C.3       1 <0>        -0.1200 
     11 C11        59.8425   22.9017   37.3703 C.3       1 <0>        -0.1200 
     12 C12        56.5557   22.4326   38.8413 C.3       1 <0>         0.1500 
     13 C13        54.9542   22.9634   37.0332 C.3       1 <0>         0.1500 
     14 C14        57.3649   23.0305   36.5695 C.3       1 <0>         0.1500 
     15 C15        51.9913   23.8052   40.6051 C.ar      1 <0>        -0.1150 
     16 C16        52.0135   26.6260   40.4958 C.ar      1 <0>        -0.1150 
     17 C17        53.0894   20.1848   40.1920 C.3       1 <0>        -0.0149 
     18 C18        54.0706   22.2576   39.3020 C.3       1 <0>         0.0100 
     19 C19        51.9777   22.3153   40.6871 C.2       1 <0>         0.6150 
     20 C20        58.6661   20.8034   36.4554 C.2       1 <0>         0.5000 
     21 C21        58.7216   22.3144   36.5527 C.3       1 <0>         0.0000 
     22 C22        52.0309   28.1539   40.4785 C.3       1 <0>         0.3800 
     23 C23        50.8091   28.7274   41.2366 C.3       1 <0>         0.6171 
     24 N1         59.8170   20.1564   36.2547 N.am      1 <0>        -0.7600 
     25 N2         56.2874   22.4085   37.3778 N.4       1 <0>        -0.1000 
     26 N3         52.9481   21.6141   40.0357 N.am      1 <0>        -0.1151 
     27 O1         53.1677   28.6347   41.1451 O.3       1 <0>        -0.6936 
     28 O2         51.0928   21.8071   41.3718 O.2       1 <0>        -0.5000 
     29 O3         57.6220   20.1683   36.5704 O.2       1 <0>        -0.5000 
     30 F1         49.6836   28.4420   40.5820 F         1 <0>        -0.2057 
     31 F2         50.9124   30.0502   41.3521 F         1 <0>        -0.2057 
     32 F3         50.7323   28.2009   42.4596 F         1 <0>        -0.2057 
     33 H1         51.3234   28.5430   38.4388 H         1 <0>         0.0600 
     34 H2         52.2789   29.8344   39.1149 H         1 <0>         0.0600 
     35 H3         53.0647   28.3586   38.5715 H         1 <0>         0.0600 
     36 H4         52.8893   24.0468   42.5673 H         1 <0>         0.1150 
     37 H5         51.0494   23.9035   38.6578 H         1 <0>         0.1150 
     38 H6         52.9280   26.4939   42.4638 H         1 <0>         0.1150 
     39 H7         51.0522   26.3602   38.5626 H         1 <0>         0.1150 
     40 H8         52.0436   18.4434   41.0461 H         1 <0>         0.0600 
     41 H9         50.8939   19.6401   40.2944 H         1 <0>         0.0600 
     42 H10        52.1589   19.7082   38.1985 H         1 <0>         0.0600 
     43 H11        53.3259   18.4388   38.8317 H         1 <0>         0.0600 
     44 H12        55.6732   21.7054   40.6755 H         1 <0>         0.0600 
     45 H13        55.5224   20.6166   39.3078 H         1 <0>         0.0600 
     46 H14        53.7739   21.2109   37.4190 H         1 <0>         0.0600 
     47 H15        52.8723   22.6980   37.5390 H         1 <0>         0.0600 
     48 H16        60.6622   22.4444   35.3705 H         1 <0>         0.0600 
     49 H17        59.7236   24.0061   35.4543 H         1 <0>         0.0600 
     50 H18        59.6166   23.7949   37.9459 H         1 <0>         0.0600 
     51 H19        60.5235   22.2144   37.8598 H         1 <0>         0.0600 
     52 H20        56.6150   23.4613   39.1976 H         1 <0>         0.0600 
     53 H21        57.5242   21.9786   39.0489 H         1 <0>         0.0600 
     54 H22        54.9243   24.0317   37.2532 H         1 <0>         0.0600 
     55 H23        54.7855   22.8523   35.9621 H         1 <0>         0.0600 
     56 H24        57.0276   23.1319   35.5378 H         1 <0>         0.0600 
     57 H25        57.5135   24.0436   36.9296 H         1 <0>         0.0600 
     58 H26        53.9403   19.8664   40.7930 H         1 <0>         0.0600 
     59 H27        54.1606   23.3023   39.5956 H         1 <0>         0.0600 
     60 H28        59.8038   19.1503   36.1615 H         1 <0>         0.3800 
     61 H29        60.6812   20.6683   36.1756 H         1 <0>         0.3800 
     62 H30        56.2858   21.4332   37.1002 H         1 <0>         0.2900 
     63 H31        52.9241   28.6599   42.0627 H         1 <0>         0.4286 
@<TRIPOS>BOND
     1    1   22 1    
     2    1   33 1    
     3    1   34 1    
     4    1   35 1    
     5    2    4 ar   
     6    2   15 ar   
     7    2   36 1    
     8    3    5 ar   
     9    3   15 ar   
    10    3   37 1    
    11    4   16 ar   
    12    4   38 1    
    13    5   16 ar   
    14    5   39 1    
    15    6    7 1    
    16    6   17 1    
    17    6   40 1    
    18    6   41 1    
    19    7   17 1    
    20    7   42 1    
    21    7   43 1    
    22    8   12 1    
    23    8   18 1    
    24    8   44 1    
    25    8   45 1    
    26    9   13 1    
    27    9   18 1    
    28    9   46 1    
    29    9   47 1    
    30   10   11 1    
    31   10   21 1    
    32   10   48 1    
    33   10   49 1    
    34   11   21 1    
    35   11   50 1    
    36   11   51 1    
    37   12   25 1    
    38   12   52 1    
    39   12   53 1    
    40   13   25 1    
    41   13   54 1    
    42   13   55 1    
    43   14   21 1    
    44   14   25 1    
    45   14   56 1    
    46   14   57 1    
    47   15   19 1    
    48   16   22 1    
    49   17   26 1    
    50   17   58 1    
    51   18   26 1    
    52   18   59 1    
    53   19   26 am   BACKBONE|DICT|INTERRES
    54   19   28 2    
    55   20   21 1    
    56   20   24 am   BACKBONE|DICT|INTERRES
    57   20   29 2    
    58   22   23 1    
    59   22   27 1    
    60   23   30 1    
    61   23   31 1    
    62   23   32 1    
    63   24   60 1    
    64   24   61 1    
    65   25   62 1    
    66   27   63 1    
@<TRIPOS>SUBSTRUCTURE
     1 <0>         1 GROUP             0       ****    0 ROOT    
@<TRIPOS>MOLECULE
A49_2_3FRJ
63   66    1
SMALL
USER_CHARGES


@<TRIPOS>ATOM
      1 C1         51.2692   28.7966   41.6588 C.3       1 <0>        -0.1800 
      2 C2         51.8124   24.5830   41.7823 C.ar      1 <0>        -0.1150 
      3 C3         51.8910   24.4367   39.3547 C.ar      1 <0>        -0.1150 
      4 C4         51.7776   25.9878   41.6969 C.ar      1 <0>        -0.1150 
      5 C5         51.8586   25.8417   39.2708 C.ar      1 <0>        -0.1150 
      6 C6         51.9196   19.2855   40.1789 C.3       1 <0>        -0.1200 
      7 C7         52.8743   19.2903   39.0089 C.3       1 <0>        -0.1200 
      8 C8         55.3030   21.7913   39.5668 C.3       1 <0>        -0.1200 
      9 C9         53.7435   22.4627   37.7135 C.3       1 <0>        -0.1200 
     10 C10        59.8573   23.1667   36.1536 C.3       1 <0>        -0.1200 
     11 C11        59.7234   22.8281   37.6148 C.3       1 <0>        -0.1200 
     12 C12        56.4098   22.5840   38.8495 C.3       1 <0>         0.1500 
     13 C13        54.9067   23.2310   37.0823 C.3       1 <0>         0.1500 
     14 C14        57.2751   23.2901   36.7391 C.3       1 <0>         0.1500 
     15 C15        51.8447   23.7974   40.6100 C.ar      1 <0>        -0.1150 
     16 C16        51.7958   26.6364   40.4389 C.ar      1 <0>        -0.1150 
     17 C17        53.0999   20.2274   40.1712 C.3       1 <0>        -0.0149 
     18 C18        53.9108   22.3747   39.2474 C.3       1 <0>         0.0100 
     19 C19        51.8911   22.2973   40.6891 C.2       1 <0>         0.6150 
     20 C20        58.3867   21.0532   36.3497 C.2       1 <0>         0.5000 
     21 C21        58.5872   22.5053   36.6623 C.3       1 <0>         0.0000 
     22 C22        51.7459   28.1685   40.3333 C.3       1 <0>         0.3800 
     23 C23        53.1159   28.7488   39.8885 C.3       1 <0>         0.6171 
     24 N1         59.4173   20.4319   35.7743 N.am      1 <0>        -0.7600 
     25 N2         56.1766   22.5700   37.4015 N.4       1 <0>        -0.1000 
     26 N3         52.8331   21.6358   39.9593 N.am      1 <0>        -0.1151 
     27 O1         50.7982   28.6040   39.3722 O.3       1 <0>        -0.6936 
     28 O2         51.0658   21.7288   41.4035 O.2       1 <0>        -0.5000 
     29 O3         57.3237   20.4790   36.5693 O.2       1 <0>        -0.5000 
     30 F1         53.6853   27.9726   38.9659 F         1 <0>        -0.2057 
     31 F2         53.9488   28.8231   40.9285 F         1 <0>        -0.2057 
     32 F3         52.9614   29.9682   39.3694 F         1 <0>        -0.2057 
     33 H1         51.9566   28.5916   42.4791 H         1 <0>         0.0600 
     34 H2         51.1842   29.8808   41.5796 H         1 <0>         0.0600 
     35 H3         50.2902   28.4114   41.9469 H         1 <0>         0.0600 
     36 H4         51.8075   24.1105   42.7542 H         1 <0>         0.1150 
     37 H5         51.9437   23.8504   38.4482 H         1 <0>         0.1150 
     38 H6         51.7393   26.5569   42.6140 H         1 <0>         0.1150 
     39 H7         51.8825   26.3027   38.2947 H         1 <0>         0.1150 
     40 H8         51.9579   18.4338   40.8581 H         1 <0>         0.0600 
     41 H9         50.9299   19.7152   40.0246 H         1 <0>         0.0600 
     42 H10        52.5227   19.7232   38.0723 H         1 <0>         0.0600 
     43 H11        53.5507   18.4418   38.9058 H         1 <0>         0.0600 
     44 H12        55.4740   21.8078   40.6432 H         1 <0>         0.0600 
     45 H13        55.3449   20.7440   39.2676 H         1 <0>         0.0600 
     46 H14        53.6786   21.4659   37.2774 H         1 <0>         0.0600 
     47 H15        52.8017   22.9594   37.4801 H         1 <0>         0.0600 
     48 H16        60.5379   22.5601   35.5562 H         1 <0>         0.0600 
     49 H17        59.8012   24.2185   35.8730 H         1 <0>         0.0600 
     50 H18        59.5760   23.6524   38.3125 H         1 <0>         0.0600 
     51 H19        60.3127   21.9940   37.9957 H         1 <0>         0.0600 
     52 H20        56.4419   23.6075   39.2230 H         1 <0>         0.0600 
     53 H21        57.3777   22.1360   39.0745 H         1 <0>         0.0600 
     54 H22        54.9149   24.2648   37.4276 H         1 <0>         0.0600 
     55 H23        54.7644   23.2607   36.0020 H         1 <0>         0.0600 
     56 H24        56.9854   23.5320   35.7153 H         1 <0>         0.0600 
     57 H25        57.4440   24.2447   37.2400 H         1 <0>         0.0600 
     58 H26        53.9272   20.0055   40.8453 H         1 <0>         0.0600 
     59 H27        53.9124   23.4117   39.5766 H         1 <0>         0.0600 
     60 H28        59.3382   19.4517   35.5420 H         1 <0>         0.3800 
     61 H29        60.2846   20.9220   35.6094 H         1 <0>         0.3800 
     62 H30        56.1364   21.6135   37.0798 H         1 <0>         0.2900 
     63 H31        49.9436   28.3034   39.6431 H         1 <0>         0.4286 
@<TRIPOS>BOND
     1    1   22 1    
     2    1   33 1    
     3    1   34 1    
     4    1   35 1    
     5    2    4 ar   
     6    2   15 ar   
     7    2   36 1    
     8    3    5 ar   
     9    3   15 ar   
    10    3   37 1    
    11    4   16 ar   
    12    4   38 1    
    13    5   16 ar   
    14    5   39 1    
    15    6    7 1    
    16    6   17 1    
    17    6   40 1    
    18    6   41 1    
    19    7   17 1    
    20    7   42 1    
    21    7   43 1    
    22    8   12 1    
    23    8   18 1    
    24    8   44 1    
    25    8   45 1    
    26    9   13 1    
    27    9   18 1    
    28    9   46 1    
    29    9   47 1    
    30   10   11 1    
    31   10   21 1    
    32   10   48 1    
    33   10   49 1    
    34   11   21 1    
    35   11   50 1    
    36   11   51 1    
    37   12   25 1    
    38   12   52 1    
    39   12   53 1    
    40   13   25 1    
    41   13   54 1    
    42   13   55 1    
    43   14   21 1    
    44   14   25 1    
    45   14   56 1    
    46   14   57 1    
    47   15   19 1    
    48   16   22 1    
    49   17   26 1    
    50   17   58 1    
    51   18   26 1    
    52   18   59 1    
    53   19   26 am   BACKBONE|DICT|INTERRES
    54   19   28 2    
    55   20   21 1    
    56   20   24 am   BACKBONE|DICT|INTERRES
    57   20   29 2    
    58   22   23 1    
    59   22   27 1    
    60   23   30 1    
    61   23   31 1    
    62   23   32 1    
    63   24   60 1    
    64   24   61 1    
    65   25   62 1    
    66   27   63 1    
@<TRIPOS>SUBSTRUCTURE
     1 <0>         1 GROUP             0       ****    0 ROOT    
@<TRIPOS>MOLECULE
A49_2_3FRJ
63   66    1
SMALL
USER_CHARGES


@<TRIPOS>ATOM
      1 C1         51.4993   29.0948   39.3138 C.3       1 <0>        -0.1800 
      2 C2         51.6697   24.7780   39.8844 C.ar      1 <0>        -0.1150 
      3 C3         52.9761   25.0891   41.9149 C.ar      1 <0>        -0.1150 
      4 C4         51.5199   26.1744   39.7687 C.ar      1 <0>        -0.1150 
      5 C5         52.8417   26.4818   41.7891 C.ar      1 <0>        -0.1150 
      6 C6         51.8140   19.7591   40.5700 C.3       1 <0>        -0.1200 
      7 C7         52.5545   19.6956   39.2635 C.3       1 <0>        -0.1200 
      8 C8         55.6023   21.8970   39.7252 C.3       1 <0>        -0.1200 
      9 C9         53.8995   22.4778   37.9607 C.3       1 <0>        -0.1200 
     10 C10        59.9371   23.0318   35.8814 C.3       1 <0>        -0.1200 
     11 C11        59.8765   22.8766   37.3685 C.3       1 <0>        -0.1200 
     12 C12        56.6808   22.6082   38.8898 C.3       1 <0>         0.1500 
     13 C13        55.0066   23.1675   37.1507 C.3       1 <0>         0.1500 
     14 C14        57.4067   23.1420   36.5714 C.3       1 <0>         0.1500 
     15 C15        52.3820   24.2291   40.9723 C.ar      1 <0>        -0.1150 
     16 C16        52.0930   27.0432   40.7313 C.ar      1 <0>        -0.1150 
     17 C17        53.1140   20.5278   40.4022 C.3       1 <0>        -0.0149 
     18 C18        54.2203   22.5296   39.4644 C.3       1 <0>         0.0100 
     19 C19        52.4416   22.7468   41.1887 C.2       1 <0>         0.6150 
     20 C20        58.6035   20.8576   36.4216 C.2       1 <0>         0.5000 
     21 C21        58.7311   22.3635   36.5331 C.3       1 <0>         0.0000 
     22 C22        51.8829   28.5645   40.7008 C.3       1 <0>         0.3800 
     23 C23        50.8067   28.9784   41.7434 C.3       1 <0>         0.6171 
     24 N1         59.7201   20.1695   36.1714 N.am      1 <0>        -0.7600 
     25 N2         56.3420   22.5754   37.4412 N.4       1 <0>        -0.1000 
     26 N3         53.1268   21.9709   40.3023 N.am      1 <0>        -0.1151 
     27 O1         53.0975   29.2429   40.9703 O.3       1 <0>        -0.6936 
     28 O2         51.8379   22.3014   42.1644 O.2       1 <0>        -0.5000 
     29 O3         57.5364   20.2681   36.5704 O.2       1 <0>        -0.5000 
     30 F1         51.0800   28.5113   42.9592 F         1 <0>        -0.2057 
     31 F2         49.6207   28.4853   41.3811 F         1 <0>        -0.2057 
     32 F3         50.6980   30.3042   41.8096 F         1 <0>        -0.2057 
     33 H1         50.5189   28.7370   39.0051 H         1 <0>         0.0600 
     34 H2         51.4491   30.1846   39.2965 H         1 <0>         0.0600 
     35 H3         52.2322   28.7864   38.5706 H         1 <0>         0.0600 
     36 H4         51.1969   24.1286   39.1598 H         1 <0>         0.1150 
     37 H5         53.5195   24.6852   42.7576 H         1 <0>         0.1150 
     38 H6         50.9357   26.5565   38.9477 H         1 <0>         0.1150 
     39 H7         53.2842   27.1218   42.5404 H         1 <0>         0.1150 
     40 H8         51.8261   18.8623   41.1875 H         1 <0>         0.0600 
     41 H9         50.8754   20.3118   40.5740 H         1 <0>         0.0600 
     42 H10        52.0734   20.1947   38.4232 H         1 <0>         0.0600 
     43 H11        53.0721   18.7689   39.0239 H         1 <0>         0.0600 
     44 H12        55.8556   21.9620   40.7851 H         1 <0>         0.0600 
     45 H13        55.6010   20.8372   39.4680 H         1 <0>         0.0600 
     46 H14        53.8153   21.4466   37.6187 H         1 <0>         0.0600 
     47 H15        52.9403   22.9556   37.7557 H         1 <0>         0.0600 
     48 H16        60.6935   22.4431   35.3705 H         1 <0>         0.0600 
     49 H17        59.8017   24.0316   35.4736 H         1 <0>         0.0600 
     50 H18        59.6967   23.7628   37.9684 H         1 <0>         0.0600 
     51 H19        60.5233   22.1432   37.8389 H         1 <0>         0.0600 
     52 H20        56.7981   23.6431   39.2265 H         1 <0>         0.0600 
     53 H21        57.6406   22.1193   39.0612 H         1 <0>         0.0600 
     54 H22        55.0137   24.2376   37.3695 H         1 <0>         0.0600 
     55 H23        54.7851   23.0689   36.0876 H         1 <0>         0.0600 
     56 H24        57.0384   23.2377   35.5484 H         1 <0>         0.0600 
     57 H25        57.6191   24.1565   36.9045 H         1 <0>         0.0600 
     58 H26        53.9473   20.0950   40.9530 H         1 <0>         0.0600 
     59 H27        54.3675   23.5832   39.7014 H         1 <0>         0.0600 
     60 H28        59.6675   19.1647   36.0683 H         1 <0>         0.3800 
     61 H29        60.6000   20.6493   36.0646 H         1 <0>         0.3800 
     62 H30        56.2888   21.5948   37.1799 H         1 <0>         0.2900 
     63 H31        52.9185   30.1725   41.0684 H         1 <0>         0.4286 
@<TRIPOS>BOND
     1    1   22 1    
     2    1   33 1    
     3    1   34 1    
     4    1   35 1    
     5    2    4 ar   
     6    2   15 ar   
     7    2   36 1    
     8    3    5 ar   
     9    3   15 ar   
    10    3   37 1    
    11    4   16 ar   
    12    4   38 1    
    13    5   16 ar   
    14    5   39 1    
    15    6    7 1    
    16    6   17 1    
    17    6   40 1    
    18    6   41 1    
    19    7   17 1    
    20    7   42 1    
    21    7   43 1    
    22    8   12 1    
    23    8   18 1    
    24    8   44 1    
    25    8   45 1    
    26    9   13 1    
    27    9   18 1    
    28    9   46 1    
    29    9   47 1    
    30   10   11 1    
    31   10   21 1    
    32   10   48 1    
    33   10   49 1    
    34   11   21 1    
    35   11   50 1    
    36   11   51 1    
    37   12   25 1    
    38   12   52 1    
    39   12   53 1    
    40   13   25 1    
    41   13   54 1    
    42   13   55 1    
    43   14   21 1    
    44   14   25 1    
    45   14   56 1    
    46   14   57 1    
    47   15   19 1    
    48   16   22 1    
    49   17   26 1    
    50   17   58 1    
    51   18   26 1    
    52   18   59 1    
    53   19   26 am   BACKBONE|DICT|INTERRES
    54   19   28 2    
    55   20   21 1    
    56   20   24 am   BACKBONE|DICT|INTERRES
    57   20   29 2    
    58   22   23 1    
    59   22   27 1    
    60   23   30 1    
    61   23   31 1    
    62   23   32 1    
    63   24   60 1    
    64   24   61 1    
    65   25   62 1    
    66   27   63 1    
@<TRIPOS>SUBSTRUCTURE
     1 <0>         1 GROUP             0       ****    0 ROOT    
@<TRIPOS>MOLECULE
A49_2_3FRJ
63   66    1
SMALL
USER_CHARGES


@<TRIPOS>ATOM
      1 C1         52.0406   28.8075   39.0743 C.3       1 <0>        -0.1800 
      2 C2         53.0294   24.8734   41.9284 C.ar      1 <0>        -0.1150 
      3 C3         51.7503   24.5391   39.8813 C.ar      1 <0>        -0.1150 
      4 C4         52.9435   26.2641   41.7567 C.ar      1 <0>        -0.1150 
      5 C5         51.6538   25.9348   39.7171 C.ar      1 <0>        -0.1150 
      6 C6         51.8631   19.5697   40.5704 C.3       1 <0>        -0.1200 
      7 C7         52.5839   19.5075   39.2539 C.3       1 <0>        -0.1200 
      8 C8         55.6784   21.7671   39.7614 C.3       1 <0>        -0.1200 
      9 C9         53.9449   22.2418   37.9828 C.3       1 <0>        -0.1200 
     10 C10        59.9394   23.0724   35.8660 C.3       1 <0>        -0.1200 
     11 C11        59.8266   23.1416   37.3571 C.3       1 <0>        -0.1200 
     12 C12        56.7268   22.4955   38.8982 C.3       1 <0>         0.1500 
     13 C13        55.0220   22.9568   37.1657 C.3       1 <0>         0.1500 
     14 C14        57.3788   22.9834   36.5351 C.3       1 <0>         0.1500 
     15 C15        52.4350   24.0043   40.9925 C.ar      1 <0>        -0.1150 
     16 C16        52.2528   26.8128   40.6534 C.ar      1 <0>        -0.1150 
     17 C17        53.1745   20.3179   40.3934 C.3       1 <0>        -0.0149 
     18 C18        54.2721   22.3350   39.4802 C.3       1 <0>         0.0100 
     19 C19        52.5016   22.5231   41.2092 C.2       1 <0>         0.6150 
     20 C20        58.8934   20.8746   36.5982 C.2       1 <0>         0.5000 
     21 C21        58.7861   22.3769   36.5735 C.3       1 <0>         0.0000 
     22 C22        52.1287   28.3343   40.5294 C.3       1 <0>         0.3800 
     23 C23        50.9298   28.8567   41.3654 C.3       1 <0>         0.6171 
     24 N1         57.8417   20.1833   36.1705 N.am      1 <0>        -0.7600 
     25 N2         56.3714   22.4017   37.4558 N.4       1 <0>        -0.1000 
     26 N3         53.1946   21.7615   40.3212 N.am      1 <0>        -0.1151 
     27 O1         53.3057   28.9825   40.9704 O.3       1 <0>        -0.6936 
     28 O2         51.8948   22.0595   42.1702 O.2       1 <0>        -0.5000 
     29 O3         59.9020   20.2811   36.9707 O.2       1 <0>        -0.5000 
     30 F1         49.7830   28.4369   40.8280 F         1 <0>        -0.2057 
     31 F2         50.9233   30.1901   41.3718 F         1 <0>        -0.2057 
     32 F3         50.9788   28.4214   42.6222 F         1 <0>        -0.2057 
     33 H1         51.1429   28.4632   38.5707 H         1 <0>         0.0600 
     34 H2         52.0389   29.8971   39.0031 H         1 <0>         0.0600 
     35 H3         52.9048   28.4390   38.5225 H         1 <0>         0.0600 
     36 H4         53.5508   24.4754   42.7871 H         1 <0>         0.1150 
     37 H5         51.2741   23.8827   39.1664 H         1 <0>         0.1150 
     38 H6         53.3950   26.9124   42.4945 H         1 <0>         0.1150 
     39 H7         51.1006   26.3102   38.8702 H         1 <0>         0.1150 
     40 H8         51.8748   18.6797   41.1940 H         1 <0>         0.0600 
     41 H9         50.9277   20.1267   40.5826 H         1 <0>         0.0600 
     42 H10        52.1029   20.0249   38.4266 H         1 <0>         0.0600 
     43 H11        53.0748   18.5709   38.9946 H         1 <0>         0.0600 
     44 H12        55.9275   21.8782   40.8186 H         1 <0>         0.0600 
     45 H13        55.7207   20.7004   39.5392 H         1 <0>         0.0600 
     46 H14        53.8952   21.2035   37.6576 H         1 <0>         0.0600 
     47 H15        52.9697   22.6821   37.7752 H         1 <0>         0.0600 
     48 H16        60.7501   22.4685   35.4628 H         1 <0>         0.0600 
     49 H17        59.7247   23.9801   35.3100 H         1 <0>         0.0600 
     50 H18        59.5401   24.1023   37.7703 H         1 <0>         0.0600 
     51 H19        60.5235   22.5712   37.9611 H         1 <0>         0.0600 
     52 H20        56.8055   23.5431   39.1935 H         1 <0>         0.0600 
     53 H21        57.7037   22.0445   39.0784 H         1 <0>         0.0600 
     54 H22        55.0090   24.0276   37.3764 H         1 <0>         0.0600 
     55 H23        54.7904   22.8449   36.1058 H         1 <0>         0.0600 
     56 H24        56.9994   22.9218   35.5171 H         1 <0>         0.0600 
     57 H25        57.4556   24.0439   36.7559 H         1 <0>         0.0600 
     58 H26        54.0121   19.8652   40.9211 H         1 <0>         0.0600 
     59 H27        54.3881   23.3988   39.6880 H         1 <0>         0.0600 
     60 H28        57.9416   19.1793   36.0962 H         1 <0>         0.3800 
     61 H29        57.1021   20.6384   35.6596 H         1 <0>         0.3800 
     62 H30        56.3298   21.4141   37.2510 H         1 <0>         0.2900 
     63 H31        53.1282   29.9156   40.9717 H         1 <0>         0.4286 
@<TRIPOS>BOND
     1    1   22 1    
     2    1   33 1    
     3    1   34 1    
     4    1   35 1    
     5    2    4 ar   
     6    2   15 ar   
     7    2   36 1    
     8    3    5 ar   
     9    3   15 ar   
    10    3   37 1    
    11    4   16 ar   
    12    4   38 1    
    13    5   16 ar   
    14    5   39 1    
    15    6    7 1    
    16    6   17 1    
    17    6   40 1    
    18    6   41 1    
    19    7   17 1    
    20    7   42 1    
    21    7   43 1    
    22    8   12 1    
    23    8   18 1    
    24    8   44 1    
    25    8   45 1    
    26    9   13 1    
    27    9   18 1    
    28    9   46 1    
    29    9   47 1    
    30   10   11 1    
    31   10   21 1    
    32   10   48 1    
    33   10   49 1    
    34   11   21 1    
    35   11   50 1    
    36   11   51 1    
    37   12   25 1    
    38   12   52 1    
    39   12   53 1    
    40   13   25 1    
    41   13   54 1    
    42   13   55 1    
    43   14   21 1    
    44   14   25 1    
    45   14   56 1    
    46   14   57 1    
    47   15   19 1    
    48   16   22 1    
    49   17   26 1    
    50   17   58 1    
    51   18   26 1    
    52   18   59 1    
    53   19   26 am   BACKBONE|DICT|INTERRES
    54   19   28 2    
    55   20   21 1    
    56   20   24 am   BACKBONE|DICT|INTERRES
    57   20   29 2    
    58   22   23 1    
    59   22   27 1    
    60   23   30 1    
    61   23   31 1    
    62   23   32 1    
    63   24   60 1    
    64   24   61 1    
    65   25   62 1    
    66   27   63 1    
@<TRIPOS>SUBSTRUCTURE
     1 <0>         1 GROUP             0       ****    0 ROOT    
@<TRIPOS>MOLECULE
A49_2_3FRJ
63   66    1
SMALL
USER_CHARGES


@<TRIPOS>ATOM
      1 C1         51.4089   29.1256   39.2982 C.3       1 <0>        -0.1800 
      2 C2         51.6589   24.7997   39.7219 C.ar      1 <0>        -0.1150 
      3 C3         52.8835   25.0555   41.8104 C.ar      1 <0>        -0.1150 
      4 C4         51.5019   26.1997   39.6468 C.ar      1 <0>        -0.1150 
      5 C5         52.7450   26.4513   41.7202 C.ar      1 <0>        -0.1150 
      6 C6         51.8574   19.7254   40.4316 C.3       1 <0>        -0.1200 
      7 C7         52.6100   19.6732   39.1275 C.3       1 <0>        -0.1200 
      8 C8         55.6046   21.8965   39.6224 C.3       1 <0>        -0.1200 
      9 C9         53.9406   22.5244   37.8400 C.3       1 <0>        -0.1200 
     10 C10        60.0187   23.0311   35.8821 C.3       1 <0>        -0.1200 
     11 C11        59.9221   22.8634   37.3707 C.3       1 <0>        -0.1200 
     12 C12        56.7044   22.6134   38.8237 C.3       1 <0>         0.1500 
     13 C13        55.0691   23.2170   37.0625 C.3       1 <0>         0.1500 
     14 C14        57.4808   23.1625   36.5224 C.3       1 <0>         0.1500 
     15 C15        52.3289   24.2220   40.8187 C.ar      1 <0>        -0.1150 
     16 C16        52.0255   27.0423   40.6581 C.ar      1 <0>        -0.1150 
     17 C17        53.1346   20.5292   40.2657 C.3       1 <0>        -0.0149 
     18 C18        54.2313   22.5482   39.3522 C.3       1 <0>         0.0100 
     19 C19        52.3691   22.7335   40.9990 C.2       1 <0>         0.6150 
     20 C20        58.6519   20.8634   36.4114 C.2       1 <0>         0.5000 
     21 C21        58.7918   22.3686   36.5076 C.3       1 <0>         0.0000 
     22 C22        51.7935   28.5622   40.6716 C.3       1 <0>         0.3800 
     23 C23        50.7118   28.9454   41.7207 C.3       1 <0>         0.6171 
     24 N1         59.7587   20.1600   36.1710 N.am      1 <0>        -0.7600 
     25 N2         56.3917   22.6067   37.3688 N.4       1 <0>        -0.1000 
     26 N3         53.1176   21.9730   40.1501 N.am      1 <0>        -0.1151 
     27 O1         52.9997   29.2433   40.9696 O.3       1 <0>        -0.6936 
     28 O2         51.6956   22.2655   41.9150 O.2       1 <0>        -0.5000 
     29 O3         57.5823   20.2804   36.5704 O.2       1 <0>        -0.5000 
     30 F1         50.5660   30.2691   41.7970 F         1 <0>        -0.2057 
     31 F2         51.0045   28.4739   42.9298 F         1 <0>        -0.2057 
     32 F3         49.5366   28.4322   41.3569 F         1 <0>        -0.2057 
     33 H1         50.4384   28.7603   38.9710 H         1 <0>         0.0600 
     34 H2         51.3404   30.2134   39.3120 H         1 <0>         0.0600 
     35 H3         52.1496   28.8463   38.5530 H         1 <0>         0.0600 
     36 H4         51.2144   24.1731   38.9619 H         1 <0>         0.1150 
     37 H5         53.3964   24.6254   42.6588 H         1 <0>         0.1150 
     38 H6         50.9477   26.6016   38.8148 H         1 <0>         0.1150 
     39 H7         53.1554   27.0692   42.5065 H         1 <0>         0.1150 
     40 H8         51.8985   18.8416   41.0683 H         1 <0>         0.0600 
     41 H9         50.8988   20.2417   40.4179 H         1 <0>         0.0600 
     42 H10        52.1332   20.1568   38.2776 H         1 <0>         0.0600 
     43 H11        53.1504   18.7583   38.8916 H         1 <0>         0.0600 
     44 H12        55.8396   21.9322   40.6868 H         1 <0>         0.0600 
     45 H13        55.6026   20.8448   39.3300 H         1 <0>         0.0600 
     46 H14        53.8434   21.5003   37.4815 H         1 <0>         0.0600 
     47 H15        52.9899   23.0163   37.6253 H         1 <0>         0.0600 
     48 H16        60.7763   22.4428   35.3711 H         1 <0>         0.0600 
     49 H17        59.8999   24.0371   35.4816 H         1 <0>         0.0600 
     50 H18        59.7268   23.7431   37.9735 H         1 <0>         0.0600 
     51 H19        60.5210   22.1085   37.8688 H         1 <0>         0.0600 
     52 H20        56.8229   23.6394   39.1780 H         1 <0>         0.0600 
     53 H21        57.6537   22.1107   39.0095 H         1 <0>         0.0600 
     54 H22        55.0840   24.2800   37.3002 H         1 <0>         0.0600 
     55 H23        54.8666   23.1409   35.9937 H         1 <0>         0.0600 
     56 H24        57.1322   23.2443   35.4895 H         1 <0>         0.0600 
     57 H25        57.7134   24.1779   36.8486 H         1 <0>         0.0600 
     58 H26        53.9695   20.1207   40.8328 H         1 <0>         0.0600 
     59 H27        54.3771   23.5952   39.6177 H         1 <0>         0.0600 
     60 H28        59.6934   19.1544   36.0852 H         1 <0>         0.3800 
     61 H29        60.6447   20.6303   36.0546 H         1 <0>         0.3800 
     62 H30        56.3344   21.6302   37.0993 H         1 <0>         0.2900 
     63 H31        52.8117   30.1670   41.0896 H         1 <0>         0.4286 
@<TRIPOS>BOND
     1    1   22 1    
     2    1   33 1    
     3    1   34 1    
     4    1   35 1    
     5    2    4 ar   
     6    2   15 ar   
     7    2   36 1    
     8    3    5 ar   
     9    3   15 ar   
    10    3   37 1    
    11    4   16 ar   
    12    4   38 1    
    13    5   16 ar   
    14    5   39 1    
    15    6    7 1    
    16    6   17 1    
    17    6   40 1    
    18    6   41 1    
    19    7   17 1    
    20    7   42 1    
    21    7   43 1    
    22    8   12 1    
    23    8   18 1    
    24    8   44 1    
    25    8   45 1    
    26    9   13 1    
    27    9   18 1    
    28    9   46 1    
    29    9   47 1    
    30   10   11 1    
    31   10   21 1    
    32   10   48 1    
    33   10   49 1    
    34   11   21 1    
    35   11   50 1    
    36   11   51 1    
    37   12   25 1    
    38   12   52 1    
    39   12   53 1    
    40   13   25 1    
    41   13   54 1    
    42   13   55 1    
    43   14   21 1    
    44   14   25 1    
    45   14   56 1    
    46   14   57 1    
    47   15   19 1    
    48   16   22 1    
    49   17   26 1    
    50   17   58 1    
    51   18   26 1    
    52   18   59 1    
    53   19   26 am   BACKBONE|DICT|INTERRES
    54   19   28 2    
    55   20   21 1    
    56   20   24 am   BACKBONE|DICT|INTERRES
    57   20   29 2    
    58   22   23 1    
    59   22   27 1    
    60   23   30 1    
    61   23   31 1    
    62   23   32 1    
    63   24   60 1    
    64   24   61 1    
    65   25   62 1    
    66   27   63 1    
@<TRIPOS>SUBSTRUCTURE
     1 <0>         1 GROUP             0       ****    0 ROOT    
@<TRIPOS>MOLECULE
A49_2_3FRJ
63   66    1
SMALL
USER_CHARGES


@<TRIPOS>ATOM
      1 C1         51.5047   29.0942   39.2995 C.3       1 <0>        -0.1800 
      2 C2         51.6868   24.7816   39.8705 C.ar      1 <0>        -0.1150 
      3 C3         52.9547   25.0922   41.9248 C.ar      1 <0>        -0.1150 
      4 C4         51.5390   26.1784   39.7495 C.ar      1 <0>        -0.1150 
      5 C5         52.8240   26.4851   41.7950 C.ar      1 <0>        -0.1150 
      6 C6         51.8158   19.7551   40.5704 C.3       1 <0>        -0.1200 
      7 C7         52.5652   19.6965   39.2702 C.3       1 <0>        -0.1200 
      8 C8         55.5977   21.9019   39.7319 C.3       1 <0>        -0.1200 
      9 C9         53.9031   22.4558   37.9554 C.3       1 <0>        -0.1200 
     10 C10        59.9374   23.0293   35.8826 C.3       1 <0>        -0.1200 
     11 C11        59.8761   22.8656   37.3704 C.3       1 <0>        -0.1200 
     12 C12        56.6801   22.6026   38.8906 C.3       1 <0>         0.1500 
     13 C13        55.0068   23.1491   37.1460 C.3       1 <0>         0.1500 
     14 C14        57.4048   23.1295   36.5708 C.3       1 <0>         0.1500 
     15 C15        52.3799   24.2332   40.9696 C.ar      1 <0>        -0.1150 
     16 C16        52.0911   27.0476   40.7242 C.ar      1 <0>        -0.1150 
     17 C17        53.1134   20.5304   40.4116 C.3       1 <0>        -0.0149 
     18 C18        54.2150   22.5260   39.4607 C.3       1 <0>         0.0100 
     19 C19        52.4379   22.7509   41.1880 C.2       1 <0>         0.6150 
     20 C20        58.6073   20.8499   36.4241 C.2       1 <0>         0.5000 
     21 C21        58.7296   22.3555   36.5342 C.3       1 <0>         0.0000 
     22 C22        51.8813   28.5678   40.6900 C.3       1 <0>         0.3800 
     23 C23        50.8007   28.9859   41.7256 C.3       1 <0>         0.6171 
     24 N1         59.7217   20.1614   36.1722 N.am      1 <0>        -0.7600 
     25 N2         56.3422   22.5615   37.4406 N.4       1 <0>        -0.1000 
     26 N3         53.1217   21.9736   40.3020 N.am      1 <0>        -0.1151 
     27 O1         53.0982   29.2434   40.9703 O.3       1 <0>        -0.6936 
     28 O2         51.8374   22.3077   42.1649 O.2       1 <0>        -0.5000 
     29 O3         57.5405   20.2607   36.5703 O.2       1 <0>        -0.5000 
     30 F1         50.6798   30.3137   41.7742 F         1 <0>        -0.2057 
     31 F2         51.0764   28.5347   42.9473 F         1 <0>        -0.2057 
     32 F3         49.6191   28.4813   41.3670 F         1 <0>        -0.2057 
     33 H1         50.5285   28.7364   38.9771 H         1 <0>         0.0600 
     34 H2         51.4582   30.1842   39.2784 H         1 <0>         0.0600 
     35 H3         52.2475   28.7847   38.5688 H         1 <0>         0.0600 
     36 H4         51.2300   24.1350   39.1346 H         1 <0>         0.1150 
     37 H5         53.4836   24.6866   42.7758 H         1 <0>         0.1150 
     38 H6         50.9688   26.5563   38.9161 H         1 <0>         0.1150 
     39 H7         53.2543   27.1274   42.5509 H         1 <0>         0.1150 
     40 H8         51.8306   18.8522   41.1816 H         1 <0>         0.0600 
     41 H9         50.8732   20.2998   40.5716 H         1 <0>         0.0600 
     42 H10        52.0859   20.1904   38.4273 H         1 <0>         0.0600 
     43 H11        53.0908   18.7751   39.0318 H         1 <0>         0.0600 
     44 H12        55.8490   21.9798   40.7905 H         1 <0>         0.0600 
     45 H13        55.5994   20.8371   39.4916 H         1 <0>         0.0600 
     46 H14        53.8340   21.4200   37.6210 H         1 <0>         0.0600 
     47 H15        52.9387   22.9190   37.7378 H         1 <0>         0.0600 
     48 H16        60.6980   22.4432   35.3699 H         1 <0>         0.0600 
     49 H17        59.8001   24.0315   35.4859 H         1 <0>         0.0600 
     50 H18        59.6904   23.7475   37.9753 H         1 <0>         0.0600 
     51 H19        60.5212   22.1310   37.8388 H         1 <0>         0.0600 
     52 H20        56.7957   23.6376   39.2150 H         1 <0>         0.0600 
     53 H21        57.6388   22.1084   39.0659 H         1 <0>         0.0600 
     54 H22        55.0122   24.2171   37.3690 H         1 <0>         0.0600 
     55 H23        54.7867   23.0520   36.0819 H         1 <0>         0.0600 
     56 H24        57.0359   23.2141   35.5475 H         1 <0>         0.0600 
     57 H25        57.6149   24.1461   36.9006 H         1 <0>         0.0600 
     58 H26        53.9422   20.1036   40.9758 H         1 <0>         0.0600 
     59 H27        54.3548   23.5829   39.6835 H         1 <0>         0.0600 
     60 H28        59.6615   19.1582   36.0695 H         1 <0>         0.3800 
     61 H29        60.6014   20.6381   36.0516 H         1 <0>         0.3800 
     62 H30        56.2962   21.5802   37.1858 H         1 <0>         0.2900 
     63 H31        52.9235   30.1736   41.0682 H         1 <0>         0.4286 
@<TRIPOS>BOND
     1    1   22 1    
     2    1   33 1    
     3    1   34 1    
     4    1   35 1    
     5    2    4 ar   
     6    2   15 ar   
     7    2   36 1    
     8    3    5 ar   
     9    3   15 ar   
    10    3   37 1    
    11    4   16 ar   
    12    4   38 1    
    13    5   16 ar   
    14    5   39 1    
    15    6    7 1    
    16    6   17 1    
    17    6   40 1    
    18    6   41 1    
    19    7   17 1    
    20    7   42 1    
    21    7   43 1    
    22    8   12 1    
    23    8   18 1    
    24    8   44 1    
    25    8   45 1    
    26    9   13 1    
    27    9   18 1    
    28    9   46 1    
    29    9   47 1    
    30   10   11 1    
    31   10   21 1    
    32   10   48 1    
    33   10   49 1    
    34   11   21 1    
    35   11   50 1    
    36   11   51 1    
    37   12   25 1    
    38   12   52 1    
    39   12   53 1    
    40   13   25 1    
    41   13   54 1    
    42   13   55 1    
    43   14   21 1    
    44   14   25 1    
    45   14   56 1    
    46   14   57 1    
    47   15   19 1    
    48   16   22 1    
    49   17   26 1    
    50   17   58 1    
    51   18   26 1    
    52   18   59 1    
    53   19   26 am   BACKBONE|DICT|INTERRES
    54   19   28 2    
    55   20   21 1    
    56   20   24 am   BACKBONE|DICT|INTERRES
    57   20   29 2    
    58   22   23 1    
    59   22   27 1    
    60   23   30 1    
    61   23   31 1    
    62   23   32 1    
    63   24   60 1    
    64   24   61 1    
    65   25   62 1    
    66   27   63 1    
@<TRIPOS>SUBSTRUCTURE
     1 <0>         1 GROUP             0       ****    0 ROOT    
@<TRIPOS>MOLECULE
A49_2_3FRJ
63   66    1
SMALL
USER_CHARGES


@<TRIPOS>ATOM
      1 C1         57.8788   20.8024   36.5317 C.3       1 <0>        -0.1800 
      2 C2         55.1612   22.6687   40.1749 C.ar      1 <0>        -0.1150 
      3 C3         54.1046   22.4584   37.9964 C.ar      1 <0>        -0.1150 
      4 C4         56.4208   22.4109   39.5985 C.ar      1 <0>        -0.1150 
      5 C5         55.3601   22.1971   37.4219 C.ar      1 <0>        -0.1150 
      6 C6         53.1618   19.8752   40.3847 C.3       1 <0>        -0.1200 
      7 C7         51.7347   19.4203   40.4476 C.3       1 <0>        -0.1200 
      8 C8         50.0740   22.4358   41.7919 C.3       1 <0>        -0.1200 
      9 C9         49.6135   23.2538   39.4587 C.3       1 <0>        -0.1200 
     10 C10        47.1784   26.2429   42.6341 C.3       1 <0>        -0.1200 
     11 C11        45.6863   26.2538   42.4623 C.3       1 <0>        -0.1200 
     12 C12        48.5709   22.5157   42.0966 C.3       1 <0>         0.1500 
     13 C13        48.1192   23.3488   39.8317 C.3       1 <0>         0.1500 
     14 C14        46.5267   23.8679   41.6686 C.3       1 <0>         0.1500 
     15 C15        53.9984   22.6931   39.3809 C.ar      1 <0>        -0.1150 
     16 C16        56.5351   22.1725   38.2100 C.ar      1 <0>        -0.1150 
     17 C17        52.0968   20.6151   39.5871 C.3       1 <0>        -0.0149 
     18 C18        50.3164   22.1644   40.2989 C.3       1 <0>         0.0100 
     19 C19        52.6611   22.9665   40.0060 C.2       1 <0>         0.6150 
     20 C20        46.2418   24.3929   44.1421 C.2       1 <0>         0.5000 
     21 C21        46.4011   24.9420   42.7547 C.3       1 <0>         0.0000 
     22 C22        57.9045   21.9663   37.5447 C.3       1 <0>         0.3800 
     23 C23        58.3475   23.2703   36.8615 C.3       1 <0>         0.6171 
     24 N1         44.9845   24.2151   44.5534 N.am      1 <0>        -0.7600 
     25 N2         47.9392   23.5902   41.2902 N.4       1 <0>        -0.1000 
     26 N3         51.7484   21.9592   39.9855 N.am      1 <0>        -0.1151 
     27 O1         58.9225   21.6436   38.4706 O.3       1 <0>        -0.6936 
     28 O2         52.4456   24.0782   40.4884 O.2       1 <0>        -0.5000 
     29 O3         47.1980   24.1334   44.8664 O.2       1 <0>        -0.5000 
     30 F1         59.4768   23.1128   36.1693 F         1 <0>        -0.2057 
     31 F2         58.5237   24.2270   37.7688 F         1 <0>        -0.2057 
     32 F3         57.3785   23.6433   36.0339 F         1 <0>        -0.2057 
     33 H1         57.2422   21.0196   35.6759 H         1 <0>         0.0600 
     34 H2         58.8733   20.6002   36.1324 H         1 <0>         0.0600 
     35 H3         57.5133   19.8763   36.9704 H         1 <0>         0.0600 
     36 H4         55.0864   22.8427   41.2378 H         1 <0>         0.1150 
     37 H5         53.2271   22.4808   37.3656 H         1 <0>         0.1150 
     38 H6         57.2942   22.4139   40.2344 H         1 <0>         0.1150 
     39 H7         55.4076   22.0443   36.3549 H         1 <0>         0.1150 
     40 H8         53.8629   19.2563   39.8280 H         1 <0>         0.0600 
     41 H9         53.5665   20.3417   41.2812 H         1 <0>         0.0600 
     42 H10        51.1864   19.5842   41.3700 H         1 <0>         0.0600 
     43 H11        51.5431   18.4740   39.9533 H         1 <0>         0.0600 
     44 H12        50.5187   21.6435   42.3855 H         1 <0>         0.0600 
     45 H13        50.5568   23.3619   42.1069 H         1 <0>         0.0600 
     46 H14        50.0737   24.2301   39.6096 H         1 <0>         0.0600 
     47 H15        49.7150   23.0273   38.3973 H         1 <0>         0.0600 
     48 H16        47.5752   26.6880   43.5451 H         1 <0>         0.0600 
     49 H17        47.7875   26.3987   41.7455 H         1 <0>         0.0600 
     50 H18        45.2937   26.4046   41.4585 H         1 <0>         0.0600 
     51 H19        45.1045   26.7202   43.2558 H         1 <0>         0.0600 
     52 H20        48.0874   21.5589   41.8868 H         1 <0>         0.0600 
     53 H21        48.4355   22.7086   43.1591 H         1 <0>         0.0600 
     54 H22        47.5996   22.4317   39.5478 H         1 <0>         0.0600 
     55 H23        47.6622   24.1584   39.2616 H         1 <0>         0.0600 
     56 H24        45.9734   24.2165   40.7953 H         1 <0>         0.0600 
     57 H25        46.0314   22.9454   41.9765 H         1 <0>         0.0600 
     58 H26        52.0765   20.4289   38.5147 H         1 <0>         0.0600 
     59 H27        49.7935   21.2432   40.0596 H         1 <0>         0.0600 
     60 H28        44.8127   23.8842   45.4923 H         1 <0>         0.3800 
     61 H29        44.2036   24.4586   43.9623 H         1 <0>         0.3800 
     62 H30        48.4505   24.4384   41.4948 H         1 <0>         0.2900 
     63 H31        59.1905   22.4318   38.9305 H         1 <0>         0.4286 
@<TRIPOS>BOND
     1    1   22 1    
     2    1   33 1    
     3    1   34 1    
     4    1   35 1    
     5    2    4 ar   
     6    2   15 ar   
     7    2   36 1    
     8    3    5 ar   
     9    3   15 ar   
    10    3   37 1    
    11    4   16 ar   
    12    4   38 1    
    13    5   16 ar   
    14    5   39 1    
    15    6    7 1    
    16    6   17 1    
    17    6   40 1    
    18    6   41 1    
    19    7   17 1    
    20    7   42 1    
    21    7   43 1    
    22    8   12 1    
    23    8   18 1    
    24    8   44 1    
    25    8   45 1    
    26    9   13 1    
    27    9   18 1    
    28    9   46 1    
    29    9   47 1    
    30   10   11 1    
    31   10   21 1    
    32   10   48 1    
    33   10   49 1    
    34   11   21 1    
    35   11   50 1    
    36   11   51 1    
    37   12   25 1    
    38   12   52 1    
    39   12   53 1    
    40   13   25 1    
    41   13   54 1    
    42   13   55 1    
    43   14   21 1    
    44   14   25 1    
    45   14   56 1    
    46   14   57 1    
    47   15   19 1    
    48   16   22 1    
    49   17   26 1    
    50   17   58 1    
    51   18   26 1    
    52   18   59 1    
    53   19   26 am   BACKBONE|DICT|INTERRES
    54   19   28 2    
    55   20   21 1    
    56   20   24 am   BACKBONE|DICT|INTERRES
    57   20   29 2    
    58   22   23 1    
    59   22   27 1    
    60   23   30 1    
    61   23   31 1    
    62   23   32 1    
    63   24   60 1    
    64   24   61 1    
    65   25   62 1    
    66   27   63 1    
@<TRIPOS>SUBSTRUCTURE
     1 <0>         1 GROUP             0       ****    0 ROOT    
@<TRIPOS>MOLECULE
A49_2_3FRJ
63   66    1
SMALL
USER_CHARGES


@<TRIPOS>ATOM
      1 C1         51.5098   29.1404   39.3104 C.3       1 <0>        -0.1800 
      2 C2         51.6832   24.8066   39.7315 C.ar      1 <0>        -0.1150 
      3 C3         52.9935   25.0433   41.7695 C.ar      1 <0>        -0.1150 
      4 C4         51.5394   26.2078   39.6626 C.ar      1 <0>        -0.1150 
      5 C5         52.8661   26.4412   41.6881 C.ar      1 <0>        -0.1150 
      6 C6         51.9771   19.7015   40.4879 C.3       1 <0>        -0.1200 
      7 C7         52.7609   19.6294   39.2056 C.3       1 <0>        -0.1200 
      8 C8         55.6869   21.9004   39.6129 C.3       1 <0>        -0.1200 
      9 C9         53.9899   22.4966   37.8515 C.3       1 <0>        -0.1200 
     10 C10        60.0657   23.0877   35.8230 C.3       1 <0>        -0.1200 
     11 C11        59.9349   23.0803   37.3174 C.3       1 <0>        -0.1200 
     12 C12        56.7700   22.6127   38.7866 C.3       1 <0>         0.1500 
     13 C13        55.1020   23.1831   37.0450 C.3       1 <0>         0.1500 
     14 C14        57.4972   23.1847   36.4787 C.3       1 <0>         0.1500 
     15 C15        52.3877   24.2183   40.8010 C.ar      1 <0>        -0.1150 
     16 C16        52.1148   27.0425   40.6532 C.ar      1 <0>        -0.1150 
     17 C17        53.2461   20.5234   40.3293 C.3       1 <0>        -0.0149 
     18 C18        54.3039   22.5378   39.3585 C.3       1 <0>         0.0100 
     19 C19        52.4124   22.7298   40.9803 C.2       1 <0>         0.6150 
     20 C20        58.7717   20.9485   36.3952 C.2       1 <0>         0.5000 
     21 C21        58.8468   22.4556   36.4835 C.3       1 <0>         0.0000 
     22 C22        51.8990   28.5643   40.6789 C.3       1 <0>         0.3800 
     23 C23        50.8273   28.9410   41.7408 C.3       1 <0>         0.6171 
     24 N1         59.9042   20.2592   36.5648 N.am      1 <0>        -0.7600 
     25 N2         56.4371   22.5919   37.3343 N.4       1 <0>        -0.1000 
     26 N3         53.2032   21.9638   40.1770 N.am      1 <0>        -0.1151 
     27 O1         53.1103   29.2432   40.9702 O.3       1 <0>        -0.6936 
     28 O2         51.6935   22.2683   41.8648 O.2       1 <0>        -0.5000 
     29 O3         57.7196   20.3567   36.1934 O.2       1 <0>        -0.5000 
     30 F1         49.6393   28.4610   41.3700 F         1 <0>        -0.2057 
     31 F2         50.7178   30.2660   41.8504 F         1 <0>        -0.2057 
     32 F3         51.1140   28.4346   42.9392 F         1 <0>        -0.2057 
     33 H1         50.5380   28.7849   38.9705 H         1 <0>         0.0600 
     34 H2         51.4565   30.2297   39.3301 H         1 <0>         0.0600 
     35 H3         52.2565   28.8592   38.5704 H         1 <0>         0.0600 
     36 H4         51.1994   24.1838   38.9922 H         1 <0>         0.1150 
     37 H5         53.5275   24.6041   42.6003 H         1 <0>         0.1150 
     38 H6         50.9506   26.6171   38.8577 H         1 <0>         0.1150 
     39 H7         53.3102   27.0535   42.4601 H         1 <0>         0.1150 
     40 H8         52.0199   18.8429   41.1549 H         1 <0>         0.0600 
     41 H9         51.0080   20.1920   40.4326 H         1 <0>         0.0600 
     42 H10        52.2934   20.0838   38.3354 H         1 <0>         0.0600 
     43 H11        53.3236   18.7194   39.0090 H         1 <0>         0.0600 
     44 H12        55.9418   21.9573   40.6708 H         1 <0>         0.0600 
     45 H13        55.6864   20.8440   39.3466 H         1 <0>         0.0600 
     46 H14        53.8954   21.4677   37.5053 H         1 <0>         0.0600 
     47 H15        53.0346   22.9818   37.6468 H         1 <0>         0.0600 
     48 H16        60.8303   22.4484   35.3892 H         1 <0>         0.0600 
     49 H17        59.9294   24.0385   35.3140 H         1 <0>         0.0600 
     50 H18        59.7249   24.0431   37.7707 H         1 <0>         0.0600 
     51 H19        60.5235   22.4090   37.9288 H         1 <0>         0.0600 
     52 H20        56.8902   23.6414   39.1293 H         1 <0>         0.0600 
     53 H21        57.7259   22.1175   38.9629 H         1 <0>         0.0600 
     54 H22        55.1097   24.2504   37.2646 H         1 <0>         0.0600 
     55 H23        54.8816   23.0854   35.9811 H         1 <0>         0.0600 
     56 H24        57.1424   23.2431   35.4506 H         1 <0>         0.0600 
     57 H25        57.6666   24.2131   36.7963 H         1 <0>         0.0600 
     58 H26        54.0775   20.1479   40.9219 H         1 <0>         0.0600 
     59 H27        54.4449   23.5878   39.6132 H         1 <0>         0.0600 
     60 H28        59.8779   19.2541   36.4823 H         1 <0>         0.3800 
     61 H29        60.7736   20.7410   36.7309 H         1 <0>         0.3800 
     62 H30        56.3905   21.6164   37.0585 H         1 <0>         0.2900 
     63 H31        52.9235   30.1710   41.0869 H         1 <0>         0.4286 
@<TRIPOS>BOND
     1    1   22 1    
     2    1   33 1    
     3    1   34 1    
     4    1   35 1    
     5    2    4 ar   
     6    2   15 ar   
     7    2   36 1    
     8    3    5 ar   
     9    3   15 ar   
    10    3   37 1    
    11    4   16 ar   
    12    4   38 1    
    13    5   16 ar   
    14    5   39 1    
    15    6    7 1    
    16    6   17 1    
    17    6   40 1    
    18    6   41 1    
    19    7   17 1    
    20    7   42 1    
    21    7   43 1    
    22    8   12 1    
    23    8   18 1    
    24    8   44 1    
    25    8   45 1    
    26    9   13 1    
    27    9   18 1    
    28    9   46 1    
    29    9   47 1    
    30   10   11 1    
    31   10   21 1    
    32   10   48 1    
    33   10   49 1    
    34   11   21 1    
    35   11   50 1    
    36   11   51 1    
    37   12   25 1    
    38   12   52 1    
    39   12   53 1    
    40   13   25 1    
    41   13   54 1    
    42   13   55 1    
    43   14   21 1    
    44   14   25 1    
    45   14   56 1    
    46   14   57 1    
    47   15   19 1    
    48   16   22 1    
    49   17   26 1    
    50   17   58 1    
    51   18   26 1    
    52   18   59 1    
    53   19   26 am   BACKBONE|DICT|INTERRES
    54   19   28 2    
    55   20   21 1    
    56   20   24 am   BACKBONE|DICT|INTERRES
    57   20   29 2    
    58   22   23 1    
    59   22   27 1    
    60   23   30 1    
    61   23   31 1    
    62   23   32 1    
    63   24   60 1    
    64   24   61 1    
    65   25   62 1    
    66   27   63 1    
@<TRIPOS>SUBSTRUCTURE
     1 <0>         1 GROUP             0       ****    0 ROOT    
@<TRIPOS>MOLECULE
A49_2_3FRJ
63   66    1
SMALL
USER_CHARGES


@<TRIPOS>ATOM
      1 C1         51.8973   28.8404   39.1924 C.3       1 <0>        -0.1800 
      2 C2         51.4392   24.5350   39.5637 C.ar      1 <0>        -0.1150 
      3 C3         52.6771   24.5822   41.6621 C.ar      1 <0>        -0.1150 
      4 C4         51.4443   25.9416   39.5293 C.ar      1 <0>        -0.1150 
      5 C5         52.6872   25.9870   41.6251 C.ar      1 <0>        -0.1150 
      6 C6         51.9316   19.2919   40.3011 C.3       1 <0>        -0.1200 
      7 C7         52.7752   19.3077   39.0565 C.3       1 <0>        -0.1200 
      8 C8         55.5004   21.6648   39.5837 C.3       1 <0>        -0.1200 
      9 C9         53.8389   22.3723   37.8281 C.3       1 <0>        -0.1200 
     10 C10        59.9059   23.0451   35.8833 C.3       1 <0>        -0.1200 
     11 C11        59.8543   22.8898   37.3704 C.3       1 <0>        -0.1200 
     12 C12        56.5911   22.4436   38.8353 C.3       1 <0>         0.1500 
     13 C13        54.9670   23.1076   37.0916 C.3       1 <0>         0.1500 
     14 C14        57.3758   23.1031   36.5705 C.3       1 <0>         0.1500 
     15 C15        52.0512   23.8535   40.6332 C.ar      1 <0>        -0.1150 
     16 C16        52.0701   26.6847   40.5626 C.ar      1 <0>        -0.1150 
     17 C17        53.1268   20.2190   40.2180 C.3       1 <0>        -0.0149 
     18 C18        54.1160   22.3040   39.3418 C.3       1 <0>         0.0100 
     19 C19        52.0189   22.3590   40.7055 C.2       1 <0>         0.6150 
     20 C20        58.6231   20.8430   36.4253 C.2       1 <0>         0.5000 
     21 C21        58.7145   22.3504   36.5417 C.3       1 <0>         0.0000 
     22 C22        52.0652   28.2172   40.5825 C.3       1 <0>         0.3800 
     23 C23        50.9573   28.7320   41.5487 C.3       1 <0>         0.6171 
     24 N1         59.7520   20.1778   36.1704 N.am      1 <0>        -0.7600 
     25 N2         56.2906   22.4944   37.3805 N.4       1 <0>        -0.1000 
     26 N3         52.9928   21.6525   40.0646 N.am      1 <0>        -0.1151 
     27 O1         53.3399   28.6986   40.9704 O.3       1 <0>        -0.6936 
     28 O2         51.1219   21.8512   41.3745 O.2       1 <0>        -0.5000 
     29 O3         57.5714   20.2286   36.5703 O.2       1 <0>        -0.5000 
     30 F1         50.9242   30.0632   41.6094 F         1 <0>        -0.2057 
     31 F2         51.1198   28.2449   42.7789 F         1 <0>        -0.2057 
     32 F3         49.7650   28.3274   41.1055 F         1 <0>        -0.2057 
     33 H1         50.9199   28.6401   38.7654 H         1 <0>         0.0600 
     34 H2         52.0065   29.9265   39.2225 H         1 <0>         0.0600 
     35 H3         52.6525   28.4501   38.5117 H         1 <0>         0.0600 
     36 H4         50.9461   23.9845   38.7750 H         1 <0>         0.1150 
     37 H5         53.1403   24.0711   42.4937 H         1 <0>         0.1150 
     38 H6         50.9498   26.4301   38.7049 H         1 <0>         0.1150 
     39 H7         53.1558   26.5305   42.4339 H         1 <0>         0.1150 
     40 H8         52.0210   18.4435   40.9701 H         1 <0>         0.0600 
     41 H9         50.9238   19.6815   40.1882 H         1 <0>         0.0600 
     42 H10        52.3056   19.7326   38.1715 H         1 <0>         0.0600 
     43 H11        53.4100   18.4441   38.8730 H         1 <0>         0.0600 
     44 H12        55.7290   21.6505   40.6506 H         1 <0>         0.0600 
     45 H13        55.5229   20.6304   39.2392 H         1 <0>         0.0600 
     46 H14        53.7399   21.3699   37.4123 H         1 <0>         0.0600 
     47 H15        52.8922   22.8763   37.6336 H         1 <0>         0.0600 
     48 H16        60.6660   22.4654   35.3704 H         1 <0>         0.0600 
     49 H17        59.7422   24.0393   35.4705 H         1 <0>         0.0600 
     50 H18        59.6523   23.7704   37.9730 H         1 <0>         0.0600 
     51 H19        60.5190   22.1713   37.8363 H         1 <0>         0.0600 
     52 H20        56.6811   23.4526   39.2360 H         1 <0>         0.0600 
     53 H21        57.5501   21.9549   39.0075 H         1 <0>         0.0600 
     54 H22        54.9725   24.1596   37.3717 H         1 <0>         0.0600 
     55 H23        54.7742   23.0759   36.0189 H         1 <0>         0.0600 
     56 H24        57.0342   23.2188   35.5415 H         1 <0>         0.0600 
     57 H25        57.5537   24.1099   36.9444 H         1 <0>         0.0600 
     58 H26        53.9490   19.8997   40.8542 H         1 <0>         0.0600 
     59 H27        54.2426   23.3294   39.6845 H         1 <0>         0.0600 
     60 H28        59.7142   19.1734   36.0683 H         1 <0>         0.3800 
     61 H29        60.6216   20.6736   36.0562 H         1 <0>         0.3800 
     62 H30        56.2469   21.5300   37.0653 H         1 <0>         0.2900 
     63 H31        53.9840   28.2866   40.4111 H         1 <0>         0.4286 
@<TRIPOS>BOND
     1    1   22 1    
     2    1   33 1    
     3    1   34 1    
     4    1   35 1    
     5    2    4 ar   
     6    2   15 ar   
     7    2   36 1    
     8    3    5 ar   
     9    3   15 ar   
    10    3   37 1    
    11    4   16 ar   
    12    4   38 1    
    13    5   16 ar   
    14    5   39 1    
    15    6    7 1    
    16    6   17 1    
    17    6   40 1    
    18    6   41 1    
    19    7   17 1    
    20    7   42 1    
    21    7   43 1    
    22    8   12 1    
    23    8   18 1    
    24    8   44 1    
    25    8   45 1    
    26    9   13 1    
    27    9   18 1    
    28    9   46 1    
    29    9   47 1    
    30   10   11 1    
    31   10   21 1    
    32   10   48 1    
    33   10   49 1    
    34   11   21 1    
    35   11   50 1    
    36   11   51 1    
    37   12   25 1    
    38   12   52 1    
    39   12   53 1    
    40   13   25 1    
    41   13   54 1    
    42   13   55 1    
    43   14   21 1    
    44   14   25 1    
    45   14   56 1    
    46   14   57 1    
    47   15   19 1    
    48   16   22 1    
    49   17   26 1    
    50   17   58 1    
    51   18   26 1    
    52   18   59 1    
    53   19   26 am   BACKBONE|DICT|INTERRES
    54   19   28 2    
    55   20   21 1    
    56   20   24 am   BACKBONE|DICT|INTERRES
    57   20   29 2    
    58   22   23 1    
    59   22   27 1    
    60   23   30 1    
    61   23   31 1    
    62   23   32 1    
    63   24   60 1    
    64   24   61 1    
    65   25   62 1    
    66   27   63 1    
@<TRIPOS>SUBSTRUCTURE
     1 <0>         1 GROUP             0       ****    0 ROOT    
@<TRIPOS>MOLECULE
A49_2_3FRJ
63   66    1
SMALL
USER_CHARGES


@<TRIPOS>ATOM
      1 C1         51.7159   28.8861   39.3210 C.3       1 <0>        -0.1800 
      2 C2         51.3086   24.5656   39.7184 C.ar      1 <0>        -0.1150 
      3 C3         52.8597   24.6019   41.5990 C.ar      1 <0>        -0.1150 
      4 C4         51.3033   25.9732   39.6966 C.ar      1 <0>        -0.1150 
      5 C5         52.8568   26.0072   41.5731 C.ar      1 <0>        -0.1150 
      6 C6         51.9263   19.3129   40.3336 C.3       1 <0>        -0.1200 
      7 C7         52.7864   19.3224   39.1020 C.3       1 <0>        -0.1200 
      8 C8         55.5213   21.6633   39.6128 C.3       1 <0>        -0.1200 
      9 C9         53.8425   22.3704   37.8687 C.3       1 <0>        -0.1200 
     10 C10        59.9000   23.0260   35.8795 C.3       1 <0>        -0.1200 
     11 C11        59.8508   22.8839   37.3705 C.3       1 <0>        -0.1200 
     12 C12        56.6046   22.4431   38.8520 C.3       1 <0>         0.1500 
     13 C13        54.9677   23.0929   37.1148 C.3       1 <0>         0.1500 
     14 C14        57.3701   23.0810   36.5701 C.3       1 <0>         0.1500 
     15 C15        52.0832   23.8762   40.6734 C.ar      1 <0>        -0.1150 
     16 C16        52.0747   26.7108   40.6274 C.ar      1 <0>        -0.1150 
     17 C17        53.1337   20.2289   40.2697 C.3       1 <0>        -0.0149 
     18 C18        54.1365   22.3045   39.3797 C.3       1 <0>         0.0100 
     19 C19        52.0413   22.3810   40.7467 C.2       1 <0>         0.6150 
     20 C20        58.6244   20.8267   36.4354 C.2       1 <0>         0.5000 
     21 C21        58.7130   22.3342   36.5453 C.3       1 <0>         0.0000 
     22 C22        52.0412   28.2434   40.6799 C.3       1 <0>         0.3800 
     23 C23        51.0237   28.7106   41.7609 C.3       1 <0>         0.6171 
     24 N1         59.7581   20.1612   36.2020 N.am      1 <0>        -0.7600 
     25 N2         56.2931   22.4802   37.3972 N.4       1 <0>        -0.1000 
     26 N3         53.0151   21.6638   40.1168 N.am      1 <0>        -0.1151 
     27 O1         53.3351   28.7512   40.9704 O.3       1 <0>        -0.6936 
     28 O2         51.1287   21.8822   41.4026 O.2       1 <0>        -0.5000 
     29 O3         57.5705   20.2120   36.5704 O.2       1 <0>        -0.5000 
     30 F1         50.9782   30.0408   41.8659 F         1 <0>        -0.2057 
     31 F2         51.3147   28.1832   42.9517 F         1 <0>        -0.2057 
     32 F3         49.8003   28.2978   41.4221 F         1 <0>        -0.2057 
     33 H1         50.7065   28.6649   38.9764 H         1 <0>         0.0600 
     34 H2         51.7926   29.9730   39.3685 H         1 <0>         0.0600 
     35 H3         52.4165   28.5390   38.5652 H         1 <0>         0.0600 
     36 H4         50.6999   24.0171   39.0128 H         1 <0>         0.1150 
     37 H5         53.4446   24.0860   42.3478 H         1 <0>         0.1150 
     38 H6         50.6770   26.4690   38.9707 H         1 <0>         0.1150 
     39 H7         53.4361   26.5467   42.3097 H         1 <0>         0.1150 
     40 H8         51.9888   18.4436   40.9770 H         1 <0>         0.0600 
     41 H9         50.9250   19.7168   40.2120 H         1 <0>         0.0600 
     42 H10        52.3336   19.7549   38.2118 H         1 <0>         0.0600 
     43 H11        53.4057   18.4447   38.9295 H         1 <0>         0.0600 
     44 H12        55.7588   21.6511   40.6777 H         1 <0>         0.0600 
     45 H13        55.5367   20.6268   39.2722 H         1 <0>         0.0600 
     46 H14        53.7369   21.3666   37.4556 H         1 <0>         0.0600 
     47 H15        52.8961   22.8816   37.6879 H         1 <0>         0.0600 
     48 H16        60.6626   22.4452   35.3704 H         1 <0>         0.0600 
     49 H17        59.7328   24.0159   35.4608 H         1 <0>         0.0600 
     50 H18        59.6453   23.7673   37.9666 H         1 <0>         0.0600 
     51 H19        60.5235   22.1749   37.8409 H         1 <0>         0.0600 
     52 H20        56.6914   23.4569   39.2459 H         1 <0>         0.0600 
     53 H21        57.5690   21.9627   39.0184 H         1 <0>         0.0600 
     54 H22        54.9777   24.1500   37.3816 H         1 <0>         0.0600 
     55 H23        54.7624   23.0454   36.0442 H         1 <0>         0.0600 
     56 H24        57.0199   23.1828   35.5412 H         1 <0>         0.0600 
     57 H25        57.5470   24.0929   36.9289 H         1 <0>         0.0600 
     58 H26        53.9481   19.9007   40.9137 H         1 <0>         0.0600 
     59 H27        54.2727   23.3302   39.7167 H         1 <0>         0.0600 
     60 H28        59.7252   19.1562   36.1073 H         1 <0>         0.3800 
     61 H29        60.6306   20.6568   36.1039 H         1 <0>         0.3800 
     62 H30        56.2445   21.5124   37.0939 H         1 <0>         0.2900 
     63 H31        53.9212   28.4530   40.2926 H         1 <0>         0.4286 
@<TRIPOS>BOND
     1    1   22 1    
     2    1   33 1    
     3    1   34 1    
     4    1   35 1    
     5    2    4 ar   
     6    2   15 ar   
     7    2   36 1    
     8    3    5 ar   
     9    3   15 ar   
    10    3   37 1    
    11    4   16 ar   
    12    4   38 1    
    13    5   16 ar   
    14    5   39 1    
    15    6    7 1    
    16    6   17 1    
    17    6   40 1    
    18    6   41 1    
    19    7   17 1    
    20    7   42 1    
    21    7   43 1    
    22    8   12 1    
    23    8   18 1    
    24    8   44 1    
    25    8   45 1    
    26    9   13 1    
    27    9   18 1    
    28    9   46 1    
    29    9   47 1    
    30   10   11 1    
    31   10   21 1    
    32   10   48 1    
    33   10   49 1    
    34   11   21 1    
    35   11   50 1    
    36   11   51 1    
    37   12   25 1    
    38   12   52 1    
    39   12   53 1    
    40   13   25 1    
    41   13   54 1    
    42   13   55 1    
    43   14   21 1    
    44   14   25 1    
    45   14   56 1    
    46   14   57 1    
    47   15   19 1    
    48   16   22 1    
    49   17   26 1    
    50   17   58 1    
    51   18   26 1    
    52   18   59 1    
    53   19   26 am   BACKBONE|DICT|INTERRES
    54   19   28 2    
    55   20   21 1    
    56   20   24 am   BACKBONE|DICT|INTERRES
    57   20   29 2    
    58   22   23 1    
    59   22   27 1    
    60   23   30 1    
    61   23   31 1    
    62   23   32 1    
    63   24   60 1    
    64   24   61 1    
    65   25   62 1    
    66   27   63 1    
@<TRIPOS>SUBSTRUCTURE
     1 <0>         1 GROUP             0       ****    0 ROOT    
@<TRIPOS>MOLECULE
A49_2_3FRJ
63   66    1
SMALL
USER_CHARGES


@<TRIPOS>ATOM
      1 C1         51.9045   28.8376   39.1909 C.3       1 <0>        -0.1800 
      2 C2         51.4470   24.5316   39.5714 C.ar      1 <0>        -0.1150 
      3 C3         52.6819   24.5832   41.6737 C.ar      1 <0>        -0.1150 
      4 C4         51.4553   25.9389   39.5317 C.ar      1 <0>        -0.1150 
      5 C5         52.6990   25.9874   41.6264 C.ar      1 <0>        -0.1150 
      6 C6         51.9317   19.2902   40.2939 C.3       1 <0>        -0.1200 
      7 C7         52.7838   19.3073   39.0544 C.3       1 <0>        -0.1200 
      8 C8         55.5113   21.6633   39.5876 C.3       1 <0>        -0.1200 
      9 C9         53.8479   22.3723   37.8346 C.3       1 <0>        -0.1200 
     10 C10        59.9112   23.0451   35.8833 C.3       1 <0>        -0.1200 
     11 C11        59.8589   22.8896   37.3704 C.3       1 <0>        -0.1200 
     12 C12        56.6010   22.4452   38.8377 C.3       1 <0>         0.1500 
     13 C13        54.9724   23.1129   37.0970 C.3       1 <0>         0.1500 
     14 C14        57.3824   23.1111   36.5702 C.3       1 <0>         0.1500 
     15 C15        52.0593   23.8502   40.6430 C.ar      1 <0>        -0.1150 
     16 C16        52.0826   26.6828   40.5605 C.ar      1 <0>        -0.1150 
     17 C17        53.1304   20.2147   40.2193 C.3       1 <0>        -0.0149 
     18 C18        54.1255   22.3025   39.3479 C.3       1 <0>         0.0100 
     19 C19        52.0278   22.3552   40.7123 C.2       1 <0>         0.6150 
     20 C20        58.6242   20.8460   36.4210 C.2       1 <0>         0.5000 
     21 C21        58.7193   22.3544   36.5380 C.3       1 <0>         0.0000 
     22 C22        52.0780   28.2159   40.5825 C.3       1 <0>         0.3800 
     23 C23        50.9665   28.7265   41.5463 C.3       1 <0>         0.6171 
     24 N1         59.7543   20.1791   36.1707 N.am      1 <0>        -0.7600 
     25 N2         56.2975   22.5022   37.3796 N.4       1 <0>        -0.1000 
     26 N3         53.0007   21.6484   40.0679 N.am      1 <0>        -0.1151 
     27 O1         53.3510   28.7013   40.9704 O.3       1 <0>        -0.6936 
     28 O2         51.1275   21.8456   41.3766 O.2       1 <0>        -0.5000 
     29 O3         57.5735   20.2293   36.5703 O.2       1 <0>        -0.5000 
     30 F1         50.9235   30.0568   41.6040 F         1 <0>        -0.2057 
     31 F2         51.1296   28.2426   42.7780 F         1 <0>        -0.2057 
     32 F3         49.7787   28.3116   41.1028 F         1 <0>        -0.2057 
     33 H1         50.9237   28.6406   38.7699 H         1 <0>         0.0600 
     34 H2         52.0160   29.9219   39.2209 H         1 <0>         0.0600 
     35 H3         52.6546   28.4448   38.5056 H         1 <0>         0.0600 
     36 H4         50.9526   23.9780   38.7847 H         1 <0>         0.1150 
     37 H5         53.1414   24.0735   42.5105 H         1 <0>         0.1150 
     38 H6         50.9621   26.4277   38.7050 H         1 <0>         0.1150 
     39 H7         53.1685   26.5321   42.4334 H         1 <0>         0.1150 
     40 H8         52.0125   18.4435   40.9667 H         1 <0>         0.0600 
     41 H9         50.9265   19.6829   40.1758 H         1 <0>         0.0600 
     42 H10        52.3309   19.7411   38.1670 H         1 <0>         0.0600 
     43 H11        53.4195   18.4441   38.8739 H         1 <0>         0.0600 
     44 H12        55.7403   21.6473   40.6545 H         1 <0>         0.0600 
     45 H13        55.5307   20.6286   39.2445 H         1 <0>         0.0600 
     46 H14        53.7594   21.3699   37.4194 H         1 <0>         0.0600 
     47 H15        52.8971   22.8676   37.6375 H         1 <0>         0.0600 
     48 H16        60.6747   22.4692   35.3710 H         1 <0>         0.0600 
     49 H17        59.7417   24.0399   35.4755 H         1 <0>         0.0600 
     50 H18        59.6590   23.7715   37.9728 H         1 <0>         0.0600 
     51 H19        60.5235   22.1697   37.8387 H         1 <0>         0.0600 
     52 H20        56.6902   23.4546   39.2424 H         1 <0>         0.0600 
     53 H21        57.5620   21.9589   39.0070 H         1 <0>         0.0600 
     54 H22        54.9734   24.1676   37.3748 H         1 <0>         0.0600 
     55 H23        54.7771   23.0776   36.0235 H         1 <0>         0.0600 
     56 H24        57.0399   23.2374   35.5418 H         1 <0>         0.0600 
     57 H25        57.5669   24.1144   36.9489 H         1 <0>         0.0600 
     58 H26        53.9487   19.8918   40.8602 H         1 <0>         0.0600 
     59 H27        54.2503   23.3271   39.6970 H         1 <0>         0.0600 
     60 H28        59.7200   19.1740   36.0686 H         1 <0>         0.3800 
     61 H29        60.6259   20.6764   36.0606 H         1 <0>         0.3800 
     62 H30        56.2532   21.5386   37.0638 H         1 <0>         0.2900 
     63 H31        53.9975   28.2834   40.4174 H         1 <0>         0.4286 
@<TRIPOS>BOND
     1    1   22 1    
     2    1   33 1    
     3    1   34 1    
     4    1   35 1    
     5    2    4 ar   
     6    2   15 ar   
     7    2   36 1    
     8    3    5 ar   
     9    3   15 ar   
    10    3   37 1    
    11    4   16 ar   
    12    4   38 1    
    13    5   16 ar   
    14    5   39 1    
    15    6    7 1    
    16    6   17 1    
    17    6   40 1    
    18    6   41 1    
    19    7   17 1    
    20    7   42 1    
    21    7   43 1    
    22    8   12 1    
    23    8   18 1    
    24    8   44 1    
    25    8   45 1    
    26    9   13 1    
    27    9   18 1    
    28    9   46 1    
    29    9   47 1    
    30   10   11 1    
    31   10   21 1    
    32   10   48 1    
    33   10   49 1    
    34   11   21 1    
    35   11   50 1    
    36   11   51 1    
    37   12   25 1    
    38   12   52 1    
    39   12   53 1    
    40   13   25 1    
    41   13   54 1    
    42   13   55 1    
    43   14   21 1    
    44   14   25 1    
    45   14   56 1    
    46   14   57 1    
    47   15   19 1    
    48   16   22 1    
    49   17   26 1    
    50   17   58 1    
    51   18   26 1    
    52   18   59 1    
    53   19   26 am   BACKBONE|DICT|INTERRES
    54   19   28 2    
    55   20   21 1    
    56   20   24 am   BACKBONE|DICT|INTERRES
    57   20   29 2    
    58   22   23 1    
    59   22   27 1    
    60   23   30 1    
    61   23   31 1    
    62   23   32 1    
    63   24   60 1    
    64   24   61 1    
    65   25   62 1    
    66   27   63 1    
@<TRIPOS>SUBSTRUCTURE
     1 <0>         1 GROUP             0       ****    0 ROOT    
@<TRIPOS>MOLECULE
A49_2_3FRJ
63   66    1
SMALL
USER_CHARGES


@<TRIPOS>ATOM
      1 C1         51.8558   28.8053   39.0526 C.3       1 <0>        -0.1800 
      2 C2         51.1843   24.5432   39.8226 C.ar      1 <0>        -0.1150 
      3 C3         52.7788   24.7125   41.6596 C.ar      1 <0>        -0.1150 
      4 C4         51.1736   25.9465   39.7051 C.ar      1 <0>        -0.1150 
      5 C5         52.7758   26.1116   41.5342 C.ar      1 <0>        -0.1150 
      6 C6         51.7234   19.3490   40.5706 C.3       1 <0>        -0.1200 
      7 C7         52.5569   19.3351   39.3229 C.3       1 <0>        -0.1200 
      8 C8         55.3480   21.5907   39.6953 C.3       1 <0>        -0.1200 
      9 C9         53.6309   22.3377   38.0151 C.3       1 <0>        -0.1200 
     10 C10        59.7186   23.1092   36.1344 C.3       1 <0>        -0.1200 
     11 C11        59.5164   22.8601   37.6033 C.3       1 <0>        -0.1200 
     12 C12        56.4259   22.3369   38.8926 C.3       1 <0>         0.1500 
     13 C13        54.7458   23.0427   37.2268 C.3       1 <0>         0.1500 
     14 C14        57.1196   23.0004   36.5836 C.3       1 <0>         0.1500 
     15 C15        51.9872   23.9247   40.8016 C.ar      1 <0>        -0.1150 
     16 C16        51.9721   26.7451   40.5575 C.ar      1 <0>        -0.1150 
     17 C17        52.9497   20.2386   40.4797 C.3       1 <0>        -0.0149 
     18 C18        53.9748   22.2708   39.5139 C.3       1 <0>         0.0100 
     19 C19        51.9579   22.4394   40.9803 C.2       1 <0>         0.6150 
     20 C20        58.4829   20.8330   36.4482 C.2       1 <0>         0.5000 
     21 C21        58.4995   22.3316   36.6254 C.3       1 <0>         0.0000 
     22 C22        51.9276   28.2741   40.4847 C.3       1 <0>         0.3800 
     23 C23        50.7893   28.8272   41.3762 C.3       1 <0>         0.6171 
     24 N1         59.6430   20.2341   36.1705 N.am      1 <0>        -0.7600 
     25 N2         56.0674   22.3978   37.4480 N.4       1 <0>        -0.1000 
     26 N3         52.8640   21.6749   40.3045 N.am      1 <0>        -0.1151 
     27 O1         53.1170   28.8431   40.9710 O.3       1 <0>        -0.6936 
     28 O2         51.1098   21.9995   41.7521 O.2       1 <0>        -0.5000 
     29 O3         57.4602   20.1665   36.5705 O.2       1 <0>        -0.5000 
     30 F1         50.8214   30.1582   41.4126 F         1 <0>        -0.2057 
     31 F2         50.9231   28.3679   42.6186 F         1 <0>        -0.2057 
     32 F3         49.6004   28.4436   40.9100 F         1 <0>        -0.2057 
     33 H1         50.9235   28.5474   38.5707 H         1 <0>         0.0600 
     34 H2         51.9331   29.8933   39.0216 H         1 <0>         0.0600 
     35 H3         52.6740   28.3982   38.4609 H         1 <0>         0.0600 
     36 H4         50.5597   23.9456   39.1760 H         1 <0>         0.1150 
     37 H5         53.3811   24.2478   42.4282 H         1 <0>         0.1150 
     38 H6         50.5264   26.3966   38.9683 H         1 <0>         0.1150 
     39 H7         53.3788   26.6913   42.2190 H         1 <0>         0.1150 
     40 H8         51.7698   18.4551   41.1929 H         1 <0>         0.0600 
     41 H9         50.7386   19.8036   40.5072 H         1 <0>         0.0600 
     42 H10        52.0914   19.7682   38.4392 H         1 <0>         0.0600 
     43 H11        53.1684   18.4544   39.1399 H         1 <0>         0.0600 
     44 H12        55.6248   21.5719   40.7512 H         1 <0>         0.0600 
     45 H13        55.3211   20.5528   39.3578 H         1 <0>         0.0600 
     46 H14        53.4966   21.3355   37.6098 H         1 <0>         0.0600 
     47 H15        52.6862   22.8608   37.8633 H         1 <0>         0.0600 
     48 H16        60.5459   22.5922   35.6527 H         1 <0>         0.0600 
     49 H17        59.5547   24.1221   35.7713 H         1 <0>         0.0600 
     50 H18        59.2109   23.6943   38.2280 H         1 <0>         0.0600 
     51 H19        60.1370   22.1268   38.1110 H         1 <0>         0.0600 
     52 H20        56.5640   23.3454   39.2863 H         1 <0>         0.0600 
     53 H21        57.3732   21.8162   39.0302 H         1 <0>         0.0600 
     54 H22        54.7970   24.0937   37.5157 H         1 <0>         0.0600 
     55 H23        54.4998   23.0214   36.1645 H         1 <0>         0.0600 
     56 H24        56.7723   23.0071   35.5498 H         1 <0>         0.0600 
     57 H25        57.2383   24.0433   36.8708 H         1 <0>         0.0600 
     58 H26        53.7731   19.8973   41.1057 H         1 <0>         0.0600 
     59 H27        54.1553   23.2929   39.8419 H         1 <0>         0.0600 
     60 H28        59.6548   19.2353   36.0231 H         1 <0>         0.3800 
     61 H29        60.4886   20.7754   36.0846 H         1 <0>         0.3800 
     62 H30        55.9913   21.4363   37.1346 H         1 <0>         0.2900 
     63 H31        52.9566   28.9637   41.9016 H         1 <0>         0.4286 
@<TRIPOS>BOND
     1    1   22 1    
     2    1   33 1    
     3    1   34 1    
     4    1   35 1    
     5    2    4 ar   
     6    2   15 ar   
     7    2   36 1    
     8    3    5 ar   
     9    3   15 ar   
    10    3   37 1    
    11    4   16 ar   
    12    4   38 1    
    13    5   16 ar   
    14    5   39 1    
    15    6    7 1    
    16    6   17 1    
    17    6   40 1    
    18    6   41 1    
    19    7   17 1    
    20    7   42 1    
    21    7   43 1    
    22    8   12 1    
    23    8   18 1    
    24    8   44 1    
    25    8   45 1    
    26    9   13 1    
    27    9   18 1    
    28    9   46 1    
    29    9   47 1    
    30   10   11 1    
    31   10   21 1    
    32   10   48 1    
    33   10   49 1    
    34   11   21 1    
    35   11   50 1    
    36   11   51 1    
    37   12   25 1    
    38   12   52 1    
    39   12   53 1    
    40   13   25 1    
    41   13   54 1    
    42   13   55 1    
    43   14   21 1    
    44   14   25 1    
    45   14   56 1    
    46   14   57 1    
    47   15   19 1    
    48   16   22 1    
    49   17   26 1    
    50   17   58 1    
    51   18   26 1    
    52   18   59 1    
    53   19   26 am   BACKBONE|DICT|INTERRES
    54   19   28 2    
    55   20   21 1    
    56   20   24 am   BACKBONE|DICT|INTERRES
    57   20   29 2    
    58   22   23 1    
    59   22   27 1    
    60   23   30 1    
    61   23   31 1    
    62   23   32 1    
    63   24   60 1    
    64   24   61 1    
    65   25   62 1    
    66   27   63 1    
@<TRIPOS>SUBSTRUCTURE
     1 <0>         1 GROUP             0       ****    0 ROOT    
@<TRIPOS>MOLECULE
A49_2_3FRJ
63   66    1
SMALL
USER_CHARGES


@<TRIPOS>ATOM
      1 C1         51.4773   29.0950   39.2928 C.3       1 <0>        -0.1800 
      2 C2         51.6397   24.7802   39.8638 C.ar      1 <0>        -0.1150 
      3 C3         52.9367   25.0929   41.9007 C.ar      1 <0>        -0.1150 
      4 C4         51.4934   26.1780   39.7464 C.ar      1 <0>        -0.1150 
      5 C5         52.8072   26.4854   41.7720 C.ar      1 <0>        -0.1150 
      6 C6         51.7835   19.7524   40.5701 C.3       1 <0>        -0.1200 
      7 C7         52.5532   19.6803   39.2840 C.3       1 <0>        -0.1200 
      8 C8         55.5673   21.8956   39.7373 C.3       1 <0>        -0.1200 
      9 C9         53.8683   22.4580   37.9622 C.3       1 <0>        -0.1200 
     10 C10        59.8953   23.0306   35.8791 C.3       1 <0>        -0.1200 
     11 C11        59.8511   22.9012   37.3704 C.3       1 <0>        -0.1200 
     12 C12        56.6476   22.5968   38.8992 C.3       1 <0>         0.1500 
     13 C13        54.9783   23.1393   37.1506 C.3       1 <0>         0.1500 
     14 C14        57.3712   23.1031   36.5706 C.3       1 <0>         0.1500 
     15 C15        52.3431   24.2337   40.9562 C.ar      1 <0>        -0.1150 
     16 C16        52.0637   27.0454   40.7098 C.ar      1 <0>        -0.1150 
     17 C17        53.0825   20.5294   40.4237 C.3       1 <0>        -0.0149 
     18 C18        54.1838   22.5241   39.4663 C.3       1 <0>         0.0100 
     19 C19        52.3949   22.7522   41.1770 C.2       1 <0>         0.6150 
     20 C20        58.6050   20.8437   36.4550 C.2       1 <0>         0.5000 
     21 C21        58.7075   22.3514   36.5547 C.3       1 <0>         0.0000 
     22 C22        51.8497   28.5645   40.6832 C.3       1 <0>         0.3800 
     23 C23        50.7638   28.9705   41.7206 C.3       1 <0>         0.6171 
     24 N1         59.7369   20.1650   36.2525 N.am      1 <0>        -0.7600 
     25 N2         56.3101   22.5456   37.4475 N.4       1 <0>        -0.1000 
     26 N3         53.0885   21.9721   40.3037 N.am      1 <0>        -0.1151 
     27 O1         53.0614   29.2405   40.9704 O.3       1 <0>        -0.6936 
     28 O2         51.7750   22.3136   42.1449 O.2       1 <0>        -0.5000 
     29 O3         57.5414   20.2430   36.5704 O.2       1 <0>        -0.5000 
     30 F1         51.0466   28.5229   42.9421 F         1 <0>        -0.2057 
     31 F2         49.5879   28.4505   41.3628 F         1 <0>        -0.2057 
     32 F3         50.6295   30.2972   41.7703 F         1 <0>        -0.2057 
     33 H1         50.4996   28.7406   38.9704 H         1 <0>         0.0600 
     34 H2         51.4344   30.1845   39.2731 H         1 <0>         0.0600 
     35 H3         52.2168   28.7819   38.5586 H         1 <0>         0.0600 
     36 H4         51.1691   24.1306   39.1398 H         1 <0>         0.1150 
     37 H5         53.4725   24.6876   42.7479 H         1 <0>         0.1150 
     38 H6         50.9148   26.5579   38.9192 H         1 <0>         0.1150 
     39 H7         53.2493   27.1255   42.5224 H         1 <0>         0.1150 
     40 H8         51.7915   18.8631   41.1993 H         1 <0>         0.0600 
     41 H9         50.8415   20.2979   40.5508 H         1 <0>         0.0600 
     42 H10        52.0825   20.1621   38.4297 H         1 <0>         0.0600 
     43 H11        53.0756   18.7520   39.0663 H         1 <0>         0.0600 
     44 H12        55.8170   21.9740   40.7962 H         1 <0>         0.0600 
     45 H13        55.5687   20.8333   39.4899 H         1 <0>         0.0600 
     46 H14        53.7844   21.4242   37.6279 H         1 <0>         0.0600 
     47 H15        52.9115   22.9352   37.7491 H         1 <0>         0.0600 
     48 H16        60.6528   22.4434   35.3705 H         1 <0>         0.0600 
     49 H17        59.7346   24.0211   35.4586 H         1 <0>         0.0600 
     50 H18        59.6553   23.7954   37.9536 H         1 <0>         0.0600 
     51 H19        60.5235   22.1946   37.8447 H         1 <0>         0.0600 
     52 H20        56.7627   23.6354   39.2196 H         1 <0>         0.0600 
     53 H21        57.6075   22.1102   39.0800 H         1 <0>         0.0600 
     54 H22        54.9884   24.2094   37.3620 H         1 <0>         0.0600 
     55 H23        54.7560   23.0319   36.0875 H         1 <0>         0.0600 
     56 H24        57.0002   23.1530   35.5478 H         1 <0>         0.0600 
     57 H25        57.5619   24.1282   36.8758 H         1 <0>         0.0600 
     58 H26        53.9033   20.1094   41.0026 H         1 <0>         0.0600 
     59 H27        54.3304   23.5804   39.6932 H         1 <0>         0.0600 
     60 H28        59.6946   19.1586   36.1589 H         1 <0>         0.3800 
     61 H29        60.6162   20.6529   36.1706 H         1 <0>         0.3800 
     62 H30        56.2588   21.5626   37.1992 H         1 <0>         0.2900 
     63 H31        52.8779   30.1689   41.0727 H         1 <0>         0.4286 
@<TRIPOS>BOND
     1    1   22 1    
     2    1   33 1    
     3    1   34 1    
     4    1   35 1    
     5    2    4 ar   
     6    2   15 ar   
     7    2   36 1    
     8    3    5 ar   
     9    3   15 ar   
    10    3   37 1    
    11    4   16 ar   
    12    4   38 1    
    13    5   16 ar   
    14    5   39 1    
    15    6    7 1    
    16    6   17 1    
    17    6   40 1    
    18    6   41 1    
    19    7   17 1    
    20    7   42 1    
    21    7   43 1    
    22    8   12 1    
    23    8   18 1    
    24    8   44 1    
    25    8   45 1    
    26    9   13 1    
    27    9   18 1    
    28    9   46 1    
    29    9   47 1    
    30   10   11 1    
    31   10   21 1    
    32   10   48 1    
    33   10   49 1    
    34   11   21 1    
    35   11   50 1    
    36   11   51 1    
    37   12   25 1    
    38   12   52 1    
    39   12   53 1    
    40   13   25 1    
    41   13   54 1    
    42   13   55 1    
    43   14   21 1    
    44   14   25 1    
    45   14   56 1    
    46   14   57 1    
    47   15   19 1    
    48   16   22 1    
    49   17   26 1    
    50   17   58 1    
    51   18   26 1    
    52   18   59 1    
    53   19   26 am   BACKBONE|DICT|INTERRES
    54   19   28 2    
    55   20   21 1    
    56   20   24 am   BACKBONE|DICT|INTERRES
    57   20   29 2    
    58   22   23 1    
    59   22   27 1    
    60   23   30 1    
    61   23   31 1    
    62   23   32 1    
    63   24   60 1    
    64   24   61 1    
    65   25   62 1    
    66   27   63 1    
@<TRIPOS>SUBSTRUCTURE
     1 <0>         1 GROUP             0       ****    0 ROOT    
@<TRIPOS>MOLECULE
A49_2_3FRJ
63   66    1
SMALL
USER_CHARGES


@<TRIPOS>ATOM
      1 C1         51.8983   28.8878   39.2339 C.3       1 <0>        -0.1800 
      2 C2         51.4534   24.5939   39.8088 C.ar      1 <0>        -0.1150 
      3 C3         52.9018   24.7295   41.7672 C.ar      1 <0>        -0.1150 
      4 C4         51.4558   25.9982   39.7130 C.ar      1 <0>        -0.1150 
      5 C5         52.9071   26.1302   41.6676 C.ar      1 <0>        -0.1150 
      6 C6         51.8215   19.3870   40.5705 C.3       1 <0>        -0.1200 
      7 C7         52.6072   19.3994   39.2904 C.3       1 <0>        -0.1200 
      8 C8         55.4931   21.6435   39.7153 C.3       1 <0>        -0.1200 
      9 C9         53.7781   22.3279   38.0050 C.3       1 <0>        -0.1200 
     10 C10        59.8062   23.0338   35.9566 C.3       1 <0>        -0.1200 
     11 C11        59.7316   22.8160   37.4392 C.3       1 <0>        -0.1200 
     12 C12        56.5675   22.3884   38.9001 C.3       1 <0>         0.1500 
     13 C13        54.8855   23.0347   37.2116 C.3       1 <0>         0.1500 
     14 C14        57.2610   23.0054   36.5822 C.3       1 <0>         0.1500 
     15 C15        52.1711   23.9601   40.8415 C.ar      1 <0>        -0.1150 
     16 C16        52.1756   26.7801   40.6477 C.ar      1 <0>        -0.1150 
     17 C17        53.0582   20.2656   40.4506 C.3       1 <0>        -0.0149 
     18 C18        54.1113   22.2984   39.5076 C.3       1 <0>         0.0100 
     19 C19        52.1153   22.4756   40.9991 C.2       1 <0>         0.6150 
     20 C20        58.5640   20.7876   36.4290 C.2       1 <0>         0.5000 
     21 C21        58.6204   22.2918   36.5701 C.3       1 <0>         0.0000 
     22 C22        52.1257   28.3089   40.6339 C.3       1 <0>         0.3800 
     23 C23        51.0202   28.7935   41.6171 C.3       1 <0>         0.6171 
     24 N1         59.7107   20.1524   36.1706 N.am      1 <0>        -0.7600 
     25 N2         56.2130   22.4112   37.4539 N.4       1 <0>        -0.1000 
     26 N3         52.9999   21.7065   40.3021 N.am      1 <0>        -0.1151 
     27 O1         53.3950   28.8434   40.9703 O.3       1 <0>        -0.6936 
     28 O2         51.2622   22.0433   41.7700 O.2       1 <0>        -0.5000 
     29 O3         57.5251   20.1502   36.5703 O.2       1 <0>        -0.5000 
     30 F1         50.9264   30.1222   41.6557 F         1 <0>        -0.2057 
     31 F2         51.2333   28.3346   42.8501 F         1 <0>        -0.2057 
     32 F3         49.8385   28.3235   41.2111 F         1 <0>        -0.2057 
     33 H1         50.9199   28.6417   38.8371 H         1 <0>         0.0600 
     34 H2         51.9679   29.9771   39.2353 H         1 <0>         0.0600 
     35 H3         52.6495   28.5053   38.5471 H         1 <0>         0.0600 
     36 H4         50.8797   24.0076   39.1054 H         1 <0>         0.1150 
     37 H5         53.4433   24.2499   42.5694 H         1 <0>         0.1150 
     38 H6         50.8693   26.4547   38.9316 H         1 <0>         0.1150 
     39 H7         53.4474   26.7066   42.4053 H         1 <0>         0.1150 
     40 H8         51.8822   18.4686   41.1550 H         1 <0>         0.0600 
     41 H9         50.8364   19.8452   40.5437 H         1 <0>         0.0600 
     42 H10        52.1135   19.8638   38.4401 H         1 <0>         0.0600 
     43 H11        53.2169   18.5305   39.0563 H         1 <0>         0.0600 
     44 H12        55.7604   21.6576   40.7732 H         1 <0>         0.0600 
     45 H13        55.4788   20.5967   39.4081 H         1 <0>         0.0600 
     46 H14        53.6627   21.3165   37.6158 H         1 <0>         0.0600 
     47 H15        52.8274   22.8328   37.8349 H         1 <0>         0.0600 
     48 H16        60.5639   22.4819   35.4046 H         1 <0>         0.0600 
     49 H17        59.6543   24.0517   35.6052 H         1 <0>         0.0600 
     50 H18        59.4800   23.6443   38.0934 H         1 <0>         0.0600 
     51 H19        60.4231   22.1026   37.8785 H         1 <0>         0.0600 
     52 H20        56.6895   23.4072   39.2708 H         1 <0>         0.0600 
     53 H21        57.5258   21.8900   39.0454 H         1 <0>         0.0600 
     54 H22        54.9218   24.0916   37.4777 H         1 <0>         0.0600 
     55 H23        54.6463   22.9860   36.1493 H         1 <0>         0.0600 
     56 H24        56.8937   23.0401   35.5561 H         1 <0>         0.0600 
     57 H25        57.4150   24.0430   36.8793 H         1 <0>         0.0600 
     58 H26        53.8993   19.8992   41.0374 H         1 <0>         0.0600 
     59 H27        54.2779   23.3324   39.8050 H         1 <0>         0.0600 
     60 H28        59.6991   19.1476   36.0568 H         1 <0>         0.3800 
     61 H29        60.5694   20.6705   36.0717 H         1 <0>         0.3800 
     62 H30        56.1513   21.4417   37.1585 H         1 <0>         0.2900 
     63 H31        54.0171   28.5159   40.3402 H         1 <0>         0.4286 
@<TRIPOS>BOND
     1    1   22 1    
     2    1   33 1    
     3    1   34 1    
     4    1   35 1    
     5    2    4 ar   
     6    2   15 ar   
     7    2   36 1    
     8    3    5 ar   
     9    3   15 ar   
    10    3   37 1    
    11    4   16 ar   
    12    4   38 1    
    13    5   16 ar   
    14    5   39 1    
    15    6    7 1    
    16    6   17 1    
    17    6   40 1    
    18    6   41 1    
    19    7   17 1    
    20    7   42 1    
    21    7   43 1    
    22    8   12 1    
    23    8   18 1    
    24    8   44 1    
    25    8   45 1    
    26    9   13 1    
    27    9   18 1    
    28    9   46 1    
    29    9   47 1    
    30   10   11 1    
    31   10   21 1    
    32   10   48 1    
    33   10   49 1    
    34   11   21 1    
    35   11   50 1    
    36   11   51 1    
    37   12   25 1    
    38   12   52 1    
    39   12   53 1    
    40   13   25 1    
    41   13   54 1    
    42   13   55 1    
    43   14   21 1    
    44   14   25 1    
    45   14   56 1    
    46   14   57 1    
    47   15   19 1    
    48   16   22 1    
    49   17   26 1    
    50   17   58 1    
    51   18   26 1    
    52   18   59 1    
    53   19   26 am   BACKBONE|DICT|INTERRES
    54   19   28 2    
    55   20   21 1    
    56   20   24 am   BACKBONE|DICT|INTERRES
    57   20   29 2    
    58   22   23 1    
    59   22   27 1    
    60   23   30 1    
    61   23   31 1    
    62   23   32 1    
    63   24   60 1    
    64   24   61 1    
    65   25   62 1    
    66   27   63 1    
@<TRIPOS>SUBSTRUCTURE
     1 <0>         1 GROUP             0       ****    0 ROOT    
@<TRIPOS>MOLECULE
A49_2_3FRJ
63   66    1
SMALL
USER_CHARGES


@<TRIPOS>ATOM
      1 C1         51.8860   28.8679   39.1385 C.3       1 <0>        -0.1800 
      2 C2         52.9645   24.7887   41.7146 C.ar      1 <0>        -0.1150 
      3 C3         51.4288   24.6051   39.8282 C.ar      1 <0>        -0.1150 
      4 C4         52.9338   26.1881   41.6059 C.ar      1 <0>        -0.1150 
      5 C5         51.3886   26.0067   39.7264 C.ar      1 <0>        -0.1150 
      6 C6         51.9078   19.4612   40.5424 C.3       1 <0>        -0.1200 
      7 C7         52.6291   19.4514   39.2243 C.3       1 <0>        -0.1200 
      8 C8         55.5749   21.8308   39.7278 C.3       1 <0>        -0.1200 
      9 C9         53.8768   22.2973   37.9208 C.3       1 <0>        -0.1200 
     10 C10        59.8951   23.0368   35.8702 C.3       1 <0>        -0.1200 
     11 C11        59.8476   22.9666   37.3703 C.3       1 <0>        -0.1200 
     12 C12        56.6271   22.5860   38.8999 C.3       1 <0>         0.1500 
     13 C13        54.9664   23.0300   37.1241 C.3       1 <0>         0.1500 
     14 C14        57.3639   23.0768   36.5706 C.3       1 <0>         0.1500 
     15 C15        52.2108   23.9952   40.8268 C.ar      1 <0>        -0.1150 
     16 C16        52.1421   26.8133   40.6156 C.ar      1 <0>        -0.1150 
     17 C17        53.1448   20.3252   40.3552 C.3       1 <0>        -0.0149 
     18 C18        54.1644   22.3766   39.4288 C.3       1 <0>         0.0100 
     19 C19        52.2039   22.5088   40.9782 C.2       1 <0>         0.6150 
     20 C20        58.6538   20.8442   36.5052 C.2       1 <0>         0.5000 
     21 C21        58.7203   22.3563   36.5694 C.3       1 <0>         0.0000 
     22 C22        52.0596   28.3399   40.5679 C.3       1 <0>         0.3800 
     23 C23        50.9268   28.8486   41.4998 C.3       1 <0>         0.6171 
     24 N1         59.8084   20.1845   36.3879 N.am      1 <0>        -0.7600 
     25 N2         56.3149   22.4968   37.4469 N.4       1 <0>        -0.1000 
     26 N3         53.0754   21.7661   40.2367 N.am      1 <0>        -0.1151 
     27 O1         53.2789   28.9383   40.9698 O.3       1 <0>        -0.6936 
     28 O2         51.3925   22.0433   41.7702 O.2       1 <0>        -0.5000 
     29 O3         57.5980   20.2211   36.5704 O.2       1 <0>        -0.5000 
     30 F1         50.9212   30.1800   41.5441 F         1 <0>        -0.2057 
     31 F2         51.0689   28.3756   42.7355 F         1 <0>        -0.2057 
     32 F3         49.7408   28.4465   41.0365 F         1 <0>        -0.2057 
     33 H1         50.9235   28.6059   38.7110 H         1 <0>         0.0600 
     34 H2         51.9573   29.9564   39.0886 H         1 <0>         0.0600 
     35 H3         52.6672   28.4571   38.5005 H         1 <0>         0.0600 
     36 H4         53.5563   24.3252   42.4922 H         1 <0>         0.1150 
     37 H5         50.8354   24.0031   39.1560 H         1 <0>         0.1150 
     38 H6         53.5013   26.7826   42.3085 H         1 <0>         0.1150 
     39 H7         50.7565   26.4446   38.9701 H         1 <0>         0.1150 
     40 H8         52.0021   18.5866   41.1772 H         1 <0>         0.0600 
     41 H9         50.9183   19.9134   40.5308 H         1 <0>         0.0600 
     42 H10        52.1105   19.9202   38.3880 H         1 <0>         0.0600 
     43 H11        53.1963   18.5573   38.9746 H         1 <0>         0.0600 
     44 H12        55.7979   21.9319   40.7916 H         1 <0>         0.0600 
     45 H13        55.6426   20.7688   39.4927 H         1 <0>         0.0600 
     46 H14        53.8383   21.2600   37.5882 H         1 <0>         0.0600 
     47 H15        52.9018   22.7329   37.6932 H         1 <0>         0.0600 
     48 H16        60.6570   22.4443   35.3719 H         1 <0>         0.0600 
     49 H17        59.7224   24.0080   35.4101 H         1 <0>         0.0600 
     50 H18        59.6345   23.8884   37.9019 H         1 <0>         0.0600 
     51 H19        60.5233   22.2925   37.8827 H         1 <0>         0.0600 
     52 H20        56.6769   23.6347   39.2065 H         1 <0>         0.0600 
     53 H21        57.6091   22.1572   39.1019 H         1 <0>         0.0600 
     54 H22        54.9272   24.1002   37.3359 H         1 <0>         0.0600 
     55 H23        54.7646   22.9132   36.0575 H         1 <0>         0.0600 
     56 H24        56.9996   23.1120   35.5451 H         1 <0>         0.0600 
     57 H25        57.5253   24.1112   36.8721 H         1 <0>         0.0600 
     58 H26        54.0123   19.9448   40.8949 H         1 <0>         0.0600 
     59 H27        54.2521   23.4376   39.6548 H         1 <0>         0.0600 
     60 H28        59.7916   19.1773   36.3095 H         1 <0>         0.3800 
     61 H29        60.6782   20.6909   36.3366 H         1 <0>         0.3800 
     62 H30        56.3045   21.5079   37.2103 H         1 <0>         0.2900 
     63 H31        53.1208   29.8735   41.0309 H         1 <0>         0.4286 
@<TRIPOS>BOND
     1    1   22 1    
     2    1   33 1    
     3    1   34 1    
     4    1   35 1    
     5    2    4 ar   
     6    2   15 ar   
     7    2   36 1    
     8    3    5 ar   
     9    3   15 ar   
    10    3   37 1    
    11    4   16 ar   
    12    4   38 1    
    13    5   16 ar   
    14    5   39 1    
    15    6    7 1    
    16    6   17 1    
    17    6   40 1    
    18    6   41 1    
    19    7   17 1    
    20    7   42 1    
    21    7   43 1    
    22    8   12 1    
    23    8   18 1    
    24    8   44 1    
    25    8   45 1    
    26    9   13 1    
    27    9   18 1    
    28    9   46 1    
    29    9   47 1    
    30   10   11 1    
    31   10   21 1    
    32   10   48 1    
    33   10   49 1    
    34   11   21 1    
    35   11   50 1    
    36   11   51 1    
    37   12   25 1    
    38   12   52 1    
    39   12   53 1    
    40   13   25 1    
    41   13   54 1    
    42   13   55 1    
    43   14   21 1    
    44   14   25 1    
    45   14   56 1    
    46   14   57 1    
    47   15   19 1    
    48   16   22 1    
    49   17   26 1    
    50   17   58 1    
    51   18   26 1    
    52   18   59 1    
    53   19   26 am   BACKBONE|DICT|INTERRES
    54   19   28 2    
    55   20   21 1    
    56   20   24 am   BACKBONE|DICT|INTERRES
    57   20   29 2    
    58   22   23 1    
    59   22   27 1    
    60   23   30 1    
    61   23   31 1    
    62   23   32 1    
    63   24   60 1    
    64   24   61 1    
    65   25   62 1    
    66   27   63 1    
@<TRIPOS>SUBSTRUCTURE
     1 <0>         1 GROUP             0       ****    0 ROOT    
@<TRIPOS>MOLECULE
A49_2_3FRJ
63   66    1
SMALL
USER_CHARGES


@<TRIPOS>ATOM
      1 C1         51.8618   28.8922   39.1571 C.3       1 <0>        -0.1800 
      2 C2         53.0944   24.9127   41.8498 C.ar      1 <0>        -0.1150 
      3 C3         51.6444   24.6091   39.9148 C.ar      1 <0>        -0.1150 
      4 C4         53.0114   26.3061   41.6969 C.ar      1 <0>        -0.1150 
      5 C5         51.5503   26.0042   39.7673 C.ar      1 <0>        -0.1150 
      6 C6         51.7334   19.6375   40.5704 C.3       1 <0>        -0.1200 
      7 C7         52.5000   19.5248   39.2778 C.3       1 <0>        -0.1200 
      8 C8         55.5769   21.7396   39.7331 C.3       1 <0>        -0.1200 
      9 C9         53.8693   22.2516   37.9508 C.3       1 <0>        -0.1200 
     10 C10        59.8865   23.0273   35.8710 C.3       1 <0>        -0.1200 
     11 C11        59.8296   22.9518   37.3703 C.3       1 <0>        -0.1200 
     12 C12        56.6431   22.4624   38.8883 C.3       1 <0>         0.1500 
     13 C13        54.9630   22.9588   37.1410 C.3       1 <0>         0.1500 
     14 C14        57.3467   23.0073   36.5704 C.3       1 <0>         0.1500 
     15 C15        52.4041   24.0606   40.9672 C.ar      1 <0>        -0.1150 
     16 C16        52.2245   26.8684   40.6647 C.ar      1 <0>        -0.1150 
     17 C17        53.0640   20.3576   40.4108 C.3       1 <0>        -0.0149 
     18 C18        54.1898   22.3421   39.4511 C.3       1 <0>         0.0100 
     19 C19        52.4332   22.5832   41.1915 C.2       1 <0>         0.6150 
     20 C20        58.6871   20.8098   36.5015 C.2       1 <0>         0.5000 
     21 C21        58.7200   22.3218   36.5630 C.3       1 <0>         0.0000 
     22 C22        52.0708   28.3886   40.5890 C.3       1 <0>         0.3800 
     23 C23        50.9230   28.8609   41.5175 C.3       1 <0>         0.6171 
     24 N1         59.8567   20.1772   36.3831 N.am      1 <0>        -0.7600 
     25 N2         56.3088   22.4013   37.4393 N.4       1 <0>        -0.1000 
     26 N3         53.1040   21.7986   40.3042 N.am      1 <0>        -0.1151 
     27 O1         53.2632   29.0471   40.9695 O.3       1 <0>        -0.6936 
     28 O2         51.8137   22.1469   42.1570 O.2       1 <0>        -0.5000 
     29 O3         57.6432   20.1670   36.5699 O.2       1 <0>        -0.5000 
     30 F1         49.7517   28.4413   41.0374 F         1 <0>        -0.2057 
     31 F2         50.8973   30.1921   41.5757 F         1 <0>        -0.2057 
     32 F3         51.0584   28.3791   42.7517 F         1 <0>        -0.2057 
     33 H1         50.9233   28.5561   38.7327 H         1 <0>         0.0600 
     34 H2         51.8528   29.9822   39.1070 H         1 <0>         0.0600 
     35 H3         52.6720   28.5335   38.5269 H         1 <0>         0.0600 
     36 H4         53.6794   24.4997   42.6601 H         1 <0>         0.1150 
     37 H5         51.1043   23.9602   39.2397 H         1 <0>         0.1150 
     38 H6         53.5266   26.9422   42.4009 H         1 <0>         0.1150 
     39 H7         50.9302   26.3917   38.9726 H         1 <0>         0.1150 
     40 H8         51.7134   18.7625   41.2179 H         1 <0>         0.0600 
     41 H9         50.8139   20.2169   40.5485 H         1 <0>         0.0600 
     42 H10        52.0563   20.0240   38.4175 H         1 <0>         0.0600 
     43 H11        52.9833   18.5734   39.0636 H         1 <0>         0.0600 
     44 H12        55.8188   21.8302   40.7920 H         1 <0>         0.0600 
     45 H13        55.5909   20.6748   39.4974 H         1 <0>         0.0600 
     46 H14        53.8117   21.2140   37.6260 H         1 <0>         0.0600 
     47 H15        52.8984   22.7010   37.7365 H         1 <0>         0.0600 
     48 H16        60.6564   22.4445   35.3735 H         1 <0>         0.0600 
     49 H17        59.7194   24.0042   35.4241 H         1 <0>         0.0600 
     50 H18        59.5897   23.8642   37.9094 H         1 <0>         0.0600 
     51 H19        60.5226   22.2931   37.8824 H         1 <0>         0.0600 
     52 H20        56.7297   23.5049   39.2038 H         1 <0>         0.0600 
     53 H21        57.6129   21.9992   39.0719 H         1 <0>         0.0600 
     54 H22        54.9487   24.0297   37.3497 H         1 <0>         0.0600 
     55 H23        54.7426   22.8447   36.0786 H         1 <0>         0.0600 
     56 H24        56.9762   23.0357   35.5439 H         1 <0>         0.0600 
     57 H25        57.4769   24.0436   36.8683 H         1 <0>         0.0600 
     58 H26        53.8820   19.9096   40.9735 H         1 <0>         0.0600 
     59 H27        54.3257   23.4049   39.6501 H         1 <0>         0.0600 
     60 H28        59.8627   19.1681   36.3135 H         1 <0>         0.3800 
     61 H29        60.7166   20.6994   36.3339 H         1 <0>         0.3800 
     62 H30        56.2867   21.4200   37.1826 H         1 <0>         0.2900 
     63 H31        53.0675   29.9763   41.0145 H         1 <0>         0.4286 
@<TRIPOS>BOND
     1    1   22 1    
     2    1   33 1    
     3    1   34 1    
     4    1   35 1    
     5    2    4 ar   
     6    2   15 ar   
     7    2   36 1    
     8    3    5 ar   
     9    3   15 ar   
    10    3   37 1    
    11    4   16 ar   
    12    4   38 1    
    13    5   16 ar   
    14    5   39 1    
    15    6    7 1    
    16    6   17 1    
    17    6   40 1    
    18    6   41 1    
    19    7   17 1    
    20    7   42 1    
    21    7   43 1    
    22    8   12 1    
    23    8   18 1    
    24    8   44 1    
    25    8   45 1    
    26    9   13 1    
    27    9   18 1    
    28    9   46 1    
    29    9   47 1    
    30   10   11 1    
    31   10   21 1    
    32   10   48 1    
    33   10   49 1    
    34   11   21 1    
    35   11   50 1    
    36   11   51 1    
    37   12   25 1    
    38   12   52 1    
    39   12   53 1    
    40   13   25 1    
    41   13   54 1    
    42   13   55 1    
    43   14   21 1    
    44   14   25 1    
    45   14   56 1    
    46   14   57 1    
    47   15   19 1    
    48   16   22 1    
    49   17   26 1    
    50   17   58 1    
    51   18   26 1    
    52   18   59 1    
    53   19   26 am   BACKBONE|DICT|INTERRES
    54   19   28 2    
    55   20   21 1    
    56   20   24 am   BACKBONE|DICT|INTERRES
    57   20   29 2    
    58   22   23 1    
    59   22   27 1    
    60   23   30 1    
    61   23   31 1    
    62   23   32 1    
    63   24   60 1    
    64   24   61 1    
    65   25   62 1    
    66   27   63 1    
@<TRIPOS>SUBSTRUCTURE
     1 <0>         1 GROUP             0       ****    0 ROOT    
@<TRIPOS>MOLECULE
A49_2_3FRJ
63   66    1
SMALL
USER_CHARGES


@<TRIPOS>ATOM
      1 C1         51.8582   28.8855   39.1301 C.3       1 <0>        -0.1800 
      2 C2         52.8746   24.7893   41.7471 C.ar      1 <0>        -0.1150 
      3 C3         51.5090   24.5866   39.7375 C.ar      1 <0>        -0.1150 
      4 C4         52.8314   26.1895   41.6352 C.ar      1 <0>        -0.1150 
      5 C5         51.4566   25.9894   39.6351 C.ar      1 <0>        -0.1150 
      6 C6         51.8964   19.4431   40.5672 C.3       1 <0>        -0.1200 
      7 C7         52.7094   19.3956   39.3035 C.3       1 <0>        -0.1200 
      8 C8         55.5631   21.6958   39.7047 C.3       1 <0>        -0.1200 
      9 C9         53.8575   22.3242   37.9633 C.3       1 <0>        -0.1200 
     10 C10        59.8864   23.0224   35.8819 C.3       1 <0>        -0.1200 
     11 C11        59.8352   22.8752   37.3704 C.3       1 <0>        -0.1200 
     12 C12        56.6386   22.4336   38.8870 C.3       1 <0>         0.1500 
     13 C13        54.9649   23.0243   37.1648 C.3       1 <0>         0.1500 
     14 C14        57.3484   23.0192   36.5703 C.3       1 <0>         0.1500 
     15 C15        52.2059   23.9847   40.8036 C.ar      1 <0>        -0.1150 
     16 C16        52.1103   26.8061   40.5884 C.ar      1 <0>        -0.1150 
     17 C17        53.1420   20.3041   40.4370 C.3       1 <0>        -0.0149 
     18 C18        54.1770   22.3327   39.4689 C.3       1 <0>         0.0100 
     19 C19        52.1905   22.4993   40.9763 C.2       1 <0>         0.6150 
     20 C20        58.6467   20.7990   36.4292 C.2       1 <0>         0.5000 
     21 C21        58.7082   22.3065   36.5438 C.3       1 <0>         0.0000 
     22 C22        52.0036   28.3335   40.5517 C.3       1 <0>         0.3800 
     23 C23        50.8450   28.8202   41.4634 C.3       1 <0>         0.6171 
     24 N1         59.7883   20.1548   36.1782 N.am      1 <0>        -0.7600 
     25 N2         56.2988   22.4247   37.4375 N.4       1 <0>        -0.1000 
     26 N3         53.0701   21.7395   40.2649 N.am      1 <0>        -0.1151 
     27 O1         53.2073   28.9449   40.9704 O.3       1 <0>        -0.6936 
     28 O2         51.3715   22.0433   41.7705 O.2       1 <0>        -0.5000 
     29 O3         57.6055   20.1655   36.5703 O.2       1 <0>        -0.5000 
     30 F1         50.8526   30.1505   41.5484 F         1 <0>        -0.2057 
     31 F2         50.9335   28.3117   42.6909 F         1 <0>        -0.2057 
     32 F3         49.6734   28.4429   40.9493 F         1 <0>        -0.2057 
     33 H1         50.9232   28.6006   38.6608 H         1 <0>         0.0600 
     34 H2         51.8890   29.9755   39.1139 H         1 <0>         0.0600 
     35 H3         52.6756   28.5197   38.5126 H         1 <0>         0.0600 
     36 H4         53.4080   24.3369   42.5694 H         1 <0>         0.1150 
     37 H5         50.9858   23.9740   39.0180 H         1 <0>         0.1150 
     38 H6         53.3276   26.7915   42.3820 H         1 <0>         0.1150 
     39 H7         50.8843   26.4183   38.8284 H         1 <0>         0.1150 
     40 H8         51.9441   18.5818   41.2276 H         1 <0>         0.0600 
     41 H9         50.9134   19.8986   40.4813 H         1 <0>         0.0600 
     42 H10        52.2399   19.8299   38.4234 H         1 <0>         0.0600 
     43 H11        53.3086   18.5078   39.1199 H         1 <0>         0.0600 
     44 H12        55.8193   21.7288   40.7647 H         1 <0>         0.0600 
     45 H13        55.5642   20.6446   39.4138 H         1 <0>         0.0600 
     46 H14        53.7567   21.3022   37.5975 H         1 <0>         0.0600 
     47 H15        52.9045   22.8184   37.7727 H         1 <0>         0.0600 
     48 H16        60.6602   22.4574   35.3708 H         1 <0>         0.0600 
     49 H17        59.7221   24.0178   35.4756 H         1 <0>         0.0600 
     50 H18        59.6138   23.7564   37.9652 H         1 <0>         0.0600 
     51 H19        60.5227   22.1795   37.8396 H         1 <0>         0.0600 
     52 H20        56.7453   23.4602   39.2414 H         1 <0>         0.0600 
     53 H21        57.6010   21.9472   39.0499 H         1 <0>         0.0600 
     54 H22        54.9793   24.0887   37.4025 H         1 <0>         0.0600 
     55 H23        54.7373   22.9466   36.1016 H         1 <0>         0.0600 
     56 H24        56.9755   23.0752   35.5471 H         1 <0>         0.0600 
     57 H25        57.5051   24.0457   36.8892 H         1 <0>         0.0600 
     58 H26        53.9703   19.9538   41.0505 H         1 <0>         0.0600 
     59 H27        54.3221   23.3758   39.7493 H         1 <0>         0.0600 
     60 H28        59.7692   19.1497   36.0745 H         1 <0>         0.3800 
     61 H29        60.6491   20.6690   36.0688 H         1 <0>         0.3800 
     62 H30        56.2521   21.4494   37.1610 H         1 <0>         0.2900 
     63 H31        53.0305   29.8742   41.0547 H         1 <0>         0.4286 
@<TRIPOS>BOND
     1    1   22 1    
     2    1   33 1    
     3    1   34 1    
     4    1   35 1    
     5    2    4 ar   
     6    2   15 ar   
     7    2   36 1    
     8    3    5 ar   
     9    3   15 ar   
    10    3   37 1    
    11    4   16 ar   
    12    4   38 1    
    13    5   16 ar   
    14    5   39 1    
    15    6    7 1    
    16    6   17 1    
    17    6   40 1    
    18    6   41 1    
    19    7   17 1    
    20    7   42 1    
    21    7   43 1    
    22    8   12 1    
    23    8   18 1    
    24    8   44 1    
    25    8   45 1    
    26    9   13 1    
    27    9   18 1    
    28    9   46 1    
    29    9   47 1    
    30   10   11 1    
    31   10   21 1    
    32   10   48 1    
    33   10   49 1    
    34   11   21 1    
    35   11   50 1    
    36   11   51 1    
    37   12   25 1    
    38   12   52 1    
    39   12   53 1    
    40   13   25 1    
    41   13   54 1    
    42   13   55 1    
    43   14   21 1    
    44   14   25 1    
    45   14   56 1    
    46   14   57 1    
    47   15   19 1    
    48   16   22 1    
    49   17   26 1    
    50   17   58 1    
    51   18   26 1    
    52   18   59 1    
    53   19   26 am   BACKBONE|DICT|INTERRES
    54   19   28 2    
    55   20   21 1    
    56   20   24 am   BACKBONE|DICT|INTERRES
    57   20   29 2    
    58   22   23 1    
    59   22   27 1    
    60   23   30 1    
    61   23   31 1    
    62   23   32 1    
    63   24   60 1    
    64   24   61 1    
    65   25   62 1    
    66   27   63 1    
@<TRIPOS>SUBSTRUCTURE
     1 <0>         1 GROUP             0       ****    0 ROOT    
@<TRIPOS>MOLECULE
A49_2_3FRJ
63   66    1
SMALL
USER_CHARGES


@<TRIPOS>ATOM
      1 C1         51.4964   28.9259   39.3152 C.3       1 <0>        -0.1800 
      2 C2         53.0359   24.7899   41.5975 C.ar      1 <0>        -0.1150 
      3 C3         51.2438   24.6009   39.9558 C.ar      1 <0>        -0.1150 
      4 C4         52.9614   26.1929   41.5150 C.ar      1 <0>        -0.1150 
      5 C5         51.1625   26.0050   39.8839 C.ar      1 <0>        -0.1150 
      6 C6         51.8938   19.4454   40.5709 C.3       1 <0>        -0.1200 
      7 C7         52.7266   19.3983   39.3204 C.3       1 <0>        -0.1200 
      8 C8         55.5658   21.7091   39.7270 C.3       1 <0>        -0.1200 
      9 C9         53.8532   22.3021   37.9853 C.3       1 <0>        -0.1200 
     10 C10        59.8804   23.0170   35.8778 C.3       1 <0>        -0.1200 
     11 C11        59.8301   22.8938   37.3706 C.3       1 <0>        -0.1200 
     12 C12        56.6363   22.4381   38.8973 C.3       1 <0>         0.1500 
     13 C13        54.9563   22.9866   37.1648 C.3       1 <0>         0.1500 
     14 C14        57.3392   23.0036   36.5705 C.3       1 <0>         0.1500 
     15 C15        52.1756   23.9892   40.8195 C.ar      1 <0>        -0.1150 
     16 C16        52.0158   26.8182   40.6687 C.ar      1 <0>        -0.1150 
     17 C17        53.1429   20.3082   40.4631 C.3       1 <0>        -0.0149 
     18 C18        54.1756   22.3354   39.4886 C.3       1 <0>         0.0100 
     19 C19        52.1764   22.5030   40.9913 C.2       1 <0>         0.6150 
     20 C20        58.6580   20.7943   36.4521 C.2       1 <0>         0.5000 
     21 C21        58.7073   22.3038   36.5529 C.3       1 <0>         0.0000 
     22 C22        51.8728   28.3440   40.6878 C.3       1 <0>         0.3800 
     23 C23        50.8571   28.7714   41.7801 C.3       1 <0>         0.6171 
     24 N1         59.8131   20.1526   36.2619 N.am      1 <0>        -0.7600 
     25 N2         56.2964   22.4085   37.4470 N.4       1 <0>        -0.1000 
     26 N3         53.0747   21.7472   40.2972 N.am      1 <0>        -0.1151 
     27 O1         53.1077   28.9792   40.9704 O.3       1 <0>        -0.6936 
     28 O2         51.3439   22.0435   41.7701 O.2       1 <0>        -0.5000 
     29 O3         57.6142   20.1568   36.5506 O.2       1 <0>        -0.5000 
     30 F1         49.6219   28.4042   41.4288 F         1 <0>        -0.2057 
     31 F2         50.8684   30.0974   41.9300 F         1 <0>        -0.2057 
     32 F3         51.1395   28.2027   42.9516 F         1 <0>        -0.2057 
     33 H1         50.5131   28.6069   38.9720 H         1 <0>         0.0600 
     34 H2         51.4768   30.0158   39.3344 H         1 <0>         0.0600 
     35 H3         52.2269   28.6261   38.5653 H         1 <0>         0.0600 
     36 H4         53.7343   24.3326   42.2841 H         1 <0>         0.1150 
     37 H5         50.5636   23.9956   39.3736 H         1 <0>         0.1150 
     38 H6         53.6088   26.7884   42.1428 H         1 <0>         0.1150 
     39 H7         50.4118   26.4405   39.2437 H         1 <0>         0.1150 
     40 H8         51.9295   18.5852   41.2333 H         1 <0>         0.0600 
     41 H9         50.9129   19.9061   40.4719 H         1 <0>         0.0600 
     42 H10        52.2643   19.8280   38.4337 H         1 <0>         0.0600 
     43 H11        53.3244   18.5065   39.1467 H         1 <0>         0.0600 
     44 H12        55.8241   21.7577   40.7866 H         1 <0>         0.0600 
     45 H13        55.5710   20.6529   39.4529 H         1 <0>         0.0600 
     46 H14        53.7621   21.2758   37.6369 H         1 <0>         0.0600 
     47 H15        52.8959   22.7867   37.7900 H         1 <0>         0.0600 
     48 H16        60.6511   22.4437   35.3710 H         1 <0>         0.0600 
     49 H17        59.7229   24.0092   35.4609 H         1 <0>         0.0600 
     50 H18        59.5991   23.7815   37.9519 H         1 <0>         0.0600 
     51 H19        60.5234   22.2123   37.8533 H         1 <0>         0.0600 
     52 H20        56.7401   23.4684   39.2343 H         1 <0>         0.0600 
     53 H21        57.6005   21.9565   39.0638 H         1 <0>         0.0600 
     54 H22        54.9648   24.0568   37.3742 H         1 <0>         0.0600 
     55 H23        54.7243   22.8629   36.1067 H         1 <0>         0.0600 
     56 H24        56.9626   23.0298   35.5484 H         1 <0>         0.0600 
     57 H25        57.4810   24.0435   36.8637 H         1 <0>         0.0600 
     58 H26        53.9681   19.9562   41.0817 H         1 <0>         0.0600 
     59 H27        54.3130   23.3827   39.7504 H         1 <0>         0.0600 
     60 H28        59.8074   19.1462   36.1691 H         1 <0>         0.3800 
     61 H29        60.6756   20.6702   36.1760 H         1 <0>         0.3800 
     62 H30        56.2603   21.4290   37.1796 H         1 <0>         0.2900 
     63 H31        52.9251   29.9035   41.0971 H         1 <0>         0.4286 
@<TRIPOS>BOND
     1    1   22 1    
     2    1   33 1    
     3    1   34 1    
     4    1   35 1    
     5    2    4 ar   
     6    2   15 ar   
     7    2   36 1    
     8    3    5 ar   
     9    3   15 ar   
    10    3   37 1    
    11    4   16 ar   
    12    4   38 1    
    13    5   16 ar   
    14    5   39 1    
    15    6    7 1    
    16    6   17 1    
    17    6   40 1    
    18    6   41 1    
    19    7   17 1    
    20    7   42 1    
    21    7   43 1    
    22    8   12 1    
    23    8   18 1    
    24    8   44 1    
    25    8   45 1    
    26    9   13 1    
    27    9   18 1    
    28    9   46 1    
    29    9   47 1    
    30   10   11 1    
    31   10   21 1    
    32   10   48 1    
    33   10   49 1    
    34   11   21 1    
    35   11   50 1    
    36   11   51 1    
    37   12   25 1    
    38   12   52 1    
    39   12   53 1    
    40   13   25 1    
    41   13   54 1    
    42   13   55 1    
    43   14   21 1    
    44   14   25 1    
    45   14   56 1    
    46   14   57 1    
    47   15   19 1    
    48   16   22 1    
    49   17   26 1    
    50   17   58 1    
    51   18   26 1    
    52   18   59 1    
    53   19   26 am   BACKBONE|DICT|INTERRES
    54   19   28 2    
    55   20   21 1    
    56   20   24 am   BACKBONE|DICT|INTERRES
    57   20   29 2    
    58   22   23 1    
    59   22   27 1    
    60   23   30 1    
    61   23   31 1    
    62   23   32 1    
    63   24   60 1    
    64   24   61 1    
    65   25   62 1    
    66   27   63 1    
@<TRIPOS>SUBSTRUCTURE
     1 <0>         1 GROUP             0       ****    0 ROOT    
@<TRIPOS>MOLECULE
A49_2_3FRJ
63   66    1
SMALL
USER_CHARGES


@<TRIPOS>ATOM
      1 C1         51.8811   28.8941   39.2284 C.3       1 <0>        -0.1800 
      2 C2         51.5233   24.5846   39.7674 C.ar      1 <0>        -0.1150 
      3 C3         52.9142   24.7382   41.7620 C.ar      1 <0>        -0.1150 
      4 C4         51.4927   25.9895   39.6796 C.ar      1 <0>        -0.1150 
      5 C5         52.8862   26.1377   41.6739 C.ar      1 <0>        -0.1150 
      6 C6         51.8977   19.3740   40.5702 C.3       1 <0>        -0.1200 
      7 C7         52.6603   19.3930   39.2754 C.3       1 <0>        -0.1200 
      8 C8         55.5607   21.6620   39.7069 C.3       1 <0>        -0.1200 
      9 C9         53.8459   22.2821   37.9743 C.3       1 <0>        -0.1200 
     10 C10        59.8751   23.0098   35.8832 C.3       1 <0>        -0.1200 
     11 C11        59.8241   22.8508   37.3705 C.3       1 <0>        -0.1200 
     12 C12        56.6256   22.4203   38.8906 C.3       1 <0>         0.1500 
     13 C13        54.9425   23.0005   37.1747 C.3       1 <0>         0.1500 
     14 C14        57.3312   23.0151   36.5705 C.3       1 <0>         0.1500 
     15 C15        52.2230   23.9572   40.8179 C.ar      1 <0>        -0.1150 
     16 C16        52.1678   26.7821   40.6405 C.ar      1 <0>        -0.1150 
     17 C17        53.1279   20.2592   40.4304 C.3       1 <0>        -0.0149 
     18 C18        54.1696   22.2915   39.4761 C.3       1 <0>         0.0100 
     19 C19        52.1833   22.4714   40.9819 C.2       1 <0>         0.6150 
     20 C20        58.6233   20.7883   36.4235 C.2       1 <0>         0.5000 
     21 C21        58.6926   22.2949   36.5375 C.3       1 <0>         0.0000 
     22 C22        52.1063   28.3139   40.6270 C.3       1 <0>         0.3800 
     23 C23        50.9981   28.8102   41.6060 C.3       1 <0>         0.6171 
     24 N1         59.7605   20.1378   36.1712 N.am      1 <0>        -0.7600 
     25 N2         56.2844   22.4155   37.4415 N.4       1 <0>        -0.1000 
     26 N3         53.0624   21.7007   40.2793 N.am      1 <0>        -0.1151 
     27 O1         53.3739   28.8433   40.9704 O.3       1 <0>        -0.6936 
     28 O2         51.3479   22.0365   41.7705 O.2       1 <0>        -0.5000 
     29 O3         57.5809   20.1583   36.5693 O.2       1 <0>        -0.5000 
     30 F1         50.9394   30.1387   41.6751 F         1 <0>        -0.2057 
     31 F2         51.1795   28.3166   42.8301 F         1 <0>        -0.2057 
     32 F3         49.8091   28.3908   41.1712 F         1 <0>        -0.2057 
     33 H1         50.8998   28.6526   38.8352 H         1 <0>         0.0600 
     34 H2         51.9528   29.9823   39.2336 H         1 <0>         0.0600 
     35 H3         52.6277   28.5105   38.5361 H         1 <0>         0.0600 
     36 H4         50.9781   23.9930   39.0455 H         1 <0>         0.1150 
     37 H5         53.4490   24.2665   42.5711 H         1 <0>         0.1150 
     38 H6         50.9246   26.4421   38.8821 H         1 <0>         0.1150 
     39 H7         53.3963   26.7210   42.4288 H         1 <0>         0.1150 
     40 H8         51.9673   18.4454   41.1409 H         1 <0>         0.0600 
     41 H9         50.9094   19.8269   40.5603 H         1 <0>         0.0600 
     42 H10        52.1518   19.8583   38.4341 H         1 <0>         0.0600 
     43 H11        53.2611   18.5203   39.0322 H         1 <0>         0.0600 
     44 H12        55.8184   21.6896   40.7657 H         1 <0>         0.0600 
     45 H13        55.5672   20.6140   39.4095 H         1 <0>         0.0600 
     46 H14        53.7613   21.2621   37.6074 H         1 <0>         0.0600 
     47 H15        52.8836   22.7594   37.7860 H         1 <0>         0.0600 
     48 H16        60.6441   22.4439   35.3705 H         1 <0>         0.0600 
     49 H17        59.7217   24.0117   35.4885 H         1 <0>         0.0600 
     50 H18        59.6011   23.7249   37.9759 H         1 <0>         0.0600 
     51 H19        60.5211   22.1527   37.8213 H         1 <0>         0.0600 
     52 H20        56.7194   23.4447   39.2494 H         1 <0>         0.0600 
     53 H21        57.5924   21.9436   39.0508 H         1 <0>         0.0600 
     54 H22        54.9436   24.0647   37.4208 H         1 <0>         0.0600 
     55 H23        54.7146   22.9255   36.1114 H         1 <0>         0.0600 
     56 H24        56.9536   23.0694   35.5508 H         1 <0>         0.0600 
     57 H25        57.4902   24.0435   36.8914 H         1 <0>         0.0600 
     58 H26        53.9782   19.8947   41.0045 H         1 <0>         0.0600 
     59 H27        54.3181   23.3348   39.7561 H         1 <0>         0.0600 
     60 H28        59.7362   19.1324   36.0633 H         1 <0>         0.3800 
     61 H29        60.6250   20.6444   36.0645 H         1 <0>         0.3800 
     62 H30        56.2439   21.4399   37.1628 H         1 <0>         0.2900 
     63 H31        54.0053   28.4861   40.3631 H         1 <0>         0.4286 
@<TRIPOS>BOND
     1    1   22 1    
     2    1   33 1    
     3    1   34 1    
     4    1   35 1    
     5    2    4 ar   
     6    2   15 ar   
     7    2   36 1    
     8    3    5 ar   
     9    3   15 ar   
    10    3   37 1    
    11    4   16 ar   
    12    4   38 1    
    13    5   16 ar   
    14    5   39 1    
    15    6    7 1    
    16    6   17 1    
    17    6   40 1    
    18    6   41 1    
    19    7   17 1    
    20    7   42 1    
    21    7   43 1    
    22    8   12 1    
    23    8   18 1    
    24    8   44 1    
    25    8   45 1    
    26    9   13 1    
    27    9   18 1    
    28    9   46 1    
    29    9   47 1    
    30   10   11 1    
    31   10   21 1    
    32   10   48 1    
    33   10   49 1    
    34   11   21 1    
    35   11   50 1    
    36   11   51 1    
    37   12   25 1    
    38   12   52 1    
    39   12   53 1    
    40   13   25 1    
    41   13   54 1    
    42   13   55 1    
    43   14   21 1    
    44   14   25 1    
    45   14   56 1    
    46   14   57 1    
    47   15   19 1    
    48   16   22 1    
    49   17   26 1    
    50   17   58 1    
    51   18   26 1    
    52   18   59 1    
    53   19   26 am   BACKBONE|DICT|INTERRES
    54   19   28 2    
    55   20   21 1    
    56   20   24 am   BACKBONE|DICT|INTERRES
    57   20   29 2    
    58   22   23 1    
    59   22   27 1    
    60   23   30 1    
    61   23   31 1    
    62   23   32 1    
    63   24   60 1    
    64   24   61 1    
    65   25   62 1    
    66   27   63 1    
@<TRIPOS>SUBSTRUCTURE
     1 <0>         1 GROUP             0       ****    0 ROOT    
@<TRIPOS>MOLECULE
A49_2_3FRJ
63   66    1
SMALL
USER_CHARGES


@<TRIPOS>ATOM
      1 C1         51.8984   28.8809   39.1930 C.3       1 <0>        -0.1800 
      2 C2         51.4054   24.5987   39.8111 C.ar      1 <0>        -0.1150 
      3 C3         52.8569   24.7445   41.7663 C.ar      1 <0>        -0.1150 
      4 C4         51.3962   26.0028   39.7161 C.ar      1 <0>        -0.1150 
      5 C5         52.8519   26.1449   41.6650 C.ar      1 <0>        -0.1150 
      6 C6         51.8261   19.4051   40.5703 C.3       1 <0>        -0.1200 
      7 C7         52.7065   19.3511   39.3549 C.3       1 <0>        -0.1200 
      8 C8         55.4725   21.6421   39.7198 C.3       1 <0>        -0.1200 
      9 C9         53.7612   22.3583   38.0222 C.3       1 <0>        -0.1200 
     10 C10        59.7825   23.0232   35.9334 C.3       1 <0>        -0.1200 
     11 C11        59.7343   22.8139   37.4182 C.3       1 <0>        -0.1200 
     12 C12        56.5530   22.3827   38.9111 C.3       1 <0>         0.1500 
     13 C13        54.8768   23.0540   37.2282 C.3       1 <0>         0.1500 
     14 C14        57.2501   23.0126   36.5957 C.3       1 <0>         0.1500 
     15 C15        52.1320   23.9689   40.8415 C.ar      1 <0>        -0.1150 
     16 C16        52.1189   26.7912   40.6437 C.ar      1 <0>        -0.1150 
     17 C17        53.0654   20.2811   40.5012 C.3       1 <0>        -0.0149 
     18 C18        54.0971   22.3130   39.5245 C.3       1 <0>         0.0100 
     19 C19        52.0900   22.4832   41.0013 C.2       1 <0>         0.6150 
     20 C20        58.5342   20.7879   36.4314 C.2       1 <0>         0.5000 
     21 C21        58.6043   22.2904   36.5695 C.3       1 <0>         0.0000 
     22 C22        52.0859   28.3219   40.6076 C.3       1 <0>         0.3800 
     23 C23        50.9693   28.8485   41.5581 C.3       1 <0>         0.6171 
     24 N1         59.6755   20.1448   36.1769 N.am      1 <0>        -0.7600 
     25 N2         56.1986   22.4190   37.4648 N.4       1 <0>        -0.1000 
     26 N3         52.9846   21.7170   40.3140 N.am      1 <0>        -0.1151 
     27 O1         53.3528   28.8431   40.9703 O.3       1 <0>        -0.6936 
     28 O2         51.2408   22.0426   41.7699 O.2       1 <0>        -0.5000 
     29 O3         57.4904   20.1570   36.5704 O.2       1 <0>        -0.5000 
     30 F1         50.9240   30.1799   41.5957 F         1 <0>        -0.2057 
     31 F2         51.1302   28.3816   42.7953 F         1 <0>        -0.2057 
     32 F3         49.7780   28.4337   41.1217 F         1 <0>        -0.2057 
     33 H1         50.9225   28.6457   38.7768 H         1 <0>         0.0600 
     34 H2         51.9853   29.9681   39.1788 H         1 <0>         0.0600 
     35 H3         52.6595   28.4771   38.5283 H         1 <0>         0.0600 
     36 H4         50.8295   24.0075   39.1110 H         1 <0>         0.1150 
     37 H5         53.4058   24.2704   42.5682 H         1 <0>         0.1150 
     38 H6         50.8080   26.4578   38.9339 H         1 <0>         0.1150 
     39 H7         53.3945   26.7224   42.3993 H         1 <0>         0.1150 
     40 H8         51.8418   18.5355   41.2246 H         1 <0>         0.0600 
     41 H9         50.8492   19.8624   40.4429 H         1 <0>         0.0600 
     42 H10        52.2758   19.7610   38.4441 H         1 <0>         0.0600 
     43 H11        53.3203   18.4607   39.2184 H         1 <0>         0.0600 
     44 H12        55.7447   21.6426   40.7774 H         1 <0>         0.0600 
     45 H13        55.4446   20.5978   39.4011 H         1 <0>         0.0600 
     46 H14        53.6303   21.3515   37.6275 H         1 <0>         0.0600 
     47 H15        52.8184   22.8814   37.8587 H         1 <0>         0.0600 
     48 H16        60.5293   22.4661   35.3739 H         1 <0>         0.0600 
     49 H17        59.6336   24.0417   35.5822 H         1 <0>         0.0600 
     50 H18        59.4976   23.6469   38.0724 H         1 <0>         0.0600 
     51 H19        60.4326   22.1015   37.8484 H         1 <0>         0.0600 
     52 H20        56.6827   23.3979   39.2905 H         1 <0>         0.0600 
     53 H21        57.5065   21.8736   39.0538 H         1 <0>         0.0600 
     54 H22        54.9230   24.1096   37.4953 H         1 <0>         0.0600 
     55 H23        54.6324   23.0108   36.1670 H         1 <0>         0.0600 
     56 H24        56.8792   23.0597   35.5713 H         1 <0>         0.0600 
     57 H25        57.4120   24.0430   36.9071 H         1 <0>         0.0600 
     58 H26        53.8676   19.9499   41.1591 H         1 <0>         0.0600 
     59 H27        54.2717   23.3415   39.8400 H         1 <0>         0.0600 
     60 H28        59.6546   19.1407   36.0581 H         1 <0>         0.3800 
     61 H29        60.5355   20.6593   36.0723 H         1 <0>         0.3800 
     62 H30        56.1258   21.4535   37.1656 H         1 <0>         0.2900 
     63 H31        53.9766   28.5530   40.3247 H         1 <0>         0.4286 
@<TRIPOS>BOND
     1    1   22 1    
     2    1   33 1    
     3    1   34 1    
     4    1   35 1    
     5    2    4 ar   
     6    2   15 ar   
     7    2   36 1    
     8    3    5 ar   
     9    3   15 ar   
    10    3   37 1    
    11    4   16 ar   
    12    4   38 1    
    13    5   16 ar   
    14    5   39 1    
    15    6    7 1    
    16    6   17 1    
    17    6   40 1    
    18    6   41 1    
    19    7   17 1    
    20    7   42 1    
    21    7   43 1    
    22    8   12 1    
    23    8   18 1    
    24    8   44 1    
    25    8   45 1    
    26    9   13 1    
    27    9   18 1    
    28    9   46 1    
    29    9   47 1    
    30   10   11 1    
    31   10   21 1    
    32   10   48 1    
    33   10   49 1    
    34   11   21 1    
    35   11   50 1    
    36   11   51 1    
    37   12   25 1    
    38   12   52 1    
    39   12   53 1    
    40   13   25 1    
    41   13   54 1    
    42   13   55 1    
    43   14   21 1    
    44   14   25 1    
    45   14   56 1    
    46   14   57 1    
    47   15   19 1    
    48   16   22 1    
    49   17   26 1    
    50   17   58 1    
    51   18   26 1    
    52   18   59 1    
    53   19   26 am   BACKBONE|DICT|INTERRES
    54   19   28 2    
    55   20   21 1    
    56   20   24 am   BACKBONE|DICT|INTERRES
    57   20   29 2    
    58   22   23 1    
    59   22   27 1    
    60   23   30 1    
    61   23   31 1    
    62   23   32 1    
    63   24   60 1    
    64   24   61 1    
    65   25   62 1    
    66   27   63 1    
@<TRIPOS>SUBSTRUCTURE
     1 <0>         1 GROUP             0       ****    0 ROOT    
@<TRIPOS>MOLECULE
A49_2_3FRJ
63   66    1
SMALL
USER_CHARGES


@<TRIPOS>ATOM
      1 C1         51.6592   28.9012   39.3183 C.3       1 <0>        -0.1800 
      2 C2         51.3884   24.5721   39.8212 C.ar      1 <0>        -0.1150 
      3 C3         52.8749   24.7108   41.7495 C.ar      1 <0>        -0.1150 
      4 C4         51.3516   25.9777   39.7496 C.ar      1 <0>        -0.1150 
      5 C5         52.8450   26.1140   41.6688 C.ar      1 <0>        -0.1150 
      6 C6         51.8774   19.3491   40.5703 C.3       1 <0>        -0.1200 
      7 C7         52.7088   19.3390   39.3185 C.3       1 <0>        -0.1200 
      8 C8         55.5040   21.6421   39.7049 C.3       1 <0>        -0.1200 
      9 C9         53.7870   22.3276   38.0016 C.3       1 <0>        -0.1200 
     10 C10        59.8180   23.0375   35.9435 C.3       1 <0>        -0.1200 
     11 C11        59.7639   22.8211   37.4261 C.3       1 <0>        -0.1200 
     12 C12        56.5776   22.3895   38.8922 C.3       1 <0>         0.1500 
     13 C13        54.8949   23.0351   37.2050 C.3       1 <0>         0.1500 
     14 C14        57.2770   23.0104   36.5768 C.3       1 <0>         0.1500 
     15 C15        52.1425   23.9372   40.8286 C.ar      1 <0>        -0.1150 
     16 C16        52.0715   26.7645   40.6795 C.ar      1 <0>        -0.1150 
     17 C17        53.1014   20.2490   40.4707 C.3       1 <0>        -0.0149 
     18 C18        54.1193   22.2951   39.5034 C.3       1 <0>         0.0100 
     19 C19        52.1089   22.4481   40.9804 C.2       1 <0>         0.6150 
     20 C20        58.5761   20.7914   36.4292 C.2       1 <0>         0.5000 
     21 C21        58.6375   22.2950   36.5682 C.3       1 <0>         0.0000 
     22 C22        51.9935   28.2950   40.6916 C.3       1 <0>         0.3800 
     23 C23        50.9639   28.7627   41.7588 C.3       1 <0>         0.6171 
     24 N1         59.7212   20.1517   36.1709 N.am      1 <0>        -0.7600 
     25 N2         56.2241   22.4150   37.4454 N.4       1 <0>        -0.1000 
     26 N3         53.0129   21.6893   40.2947 N.am      1 <0>        -0.1151 
     27 O1         53.2711   28.8428   40.9701 O.3       1 <0>        -0.6936 
     28 O2         51.2580   22.0006   41.7469 O.2       1 <0>        -0.5000 
     29 O3         57.5365   20.1565   36.5704 O.2       1 <0>        -0.5000 
     30 F1         50.9234   30.0922   41.8561 F         1 <0>        -0.2057 
     31 F2         51.2335   28.2466   42.9584 F         1 <0>        -0.2057 
     32 F3         49.7435   28.3516   41.4054 F         1 <0>        -0.2057 
     33 H1         50.6607   28.6373   38.9725 H         1 <0>         0.0600 
     34 H2         51.6994   29.9906   39.3452 H         1 <0>         0.0600 
     35 H3         52.3727   28.5666   38.5691 H         1 <0>         0.0600 
     36 H4         50.8127   23.9864   39.1189 H         1 <0>         0.1150 
     37 H5         53.4418   24.2338   42.5366 H         1 <0>         0.1150 
     38 H6         50.7396   26.4333   38.9871 H         1 <0>         0.1150 
     39 H7         53.3908   26.6891   42.4043 H         1 <0>         0.1150 
     40 H8         51.9288   18.4438   41.1756 H         1 <0>         0.0600 
     41 H9         50.8848   19.7856   40.4948 H         1 <0>         0.0600 
     42 H10        52.2365   19.7683   38.4373 H         1 <0>         0.0600 
     43 H11        53.3182   18.4534   39.1388 H         1 <0>         0.0600 
     44 H12        55.7747   21.6455   40.7629 H         1 <0>         0.0600 
     45 H13        55.4896   20.5983   39.3875 H         1 <0>         0.0600 
     46 H14        53.6731   21.3165   37.6103 H         1 <0>         0.0600 
     47 H15        52.8363   22.8358   37.8323 H         1 <0>         0.0600 
     48 H16        60.5648   22.4866   35.3793 H         1 <0>         0.0600 
     49 H17        59.6608   24.0560   35.5944 H         1 <0>         0.0600 
     50 H18        59.5178   23.6434   38.0925 H         1 <0>         0.0600 
     51 H19        60.4637   22.1084   37.8537 H         1 <0>         0.0600 
     52 H20        56.6991   23.4066   39.2637 H         1 <0>         0.0600 
     53 H21        57.5353   21.8907   39.0373 H         1 <0>         0.0600 
     54 H22        54.9240   24.0923   37.4682 H         1 <0>         0.0600 
     55 H23        54.6547   22.9862   36.1436 H         1 <0>         0.0600 
     56 H24        56.9117   23.0467   35.5511 H         1 <0>         0.0600 
     57 H25        57.4307   24.0437   36.8827 H         1 <0>         0.0600 
     58 H26        53.9274   19.9141   41.0947 H         1 <0>         0.0600 
     59 H27        54.2777   23.3258   39.8138 H         1 <0>         0.0600 
     60 H28        59.7076   19.1480   36.0546 H         1 <0>         0.3800 
     61 H29        60.5825   20.6670   36.0724 H         1 <0>         0.3800 
     62 H30        56.1622   21.4462   37.1530 H         1 <0>         0.2900 
     63 H31        53.8744   28.5049   40.3248 H         1 <0>         0.4286 
@<TRIPOS>BOND
     1    1   22 1    
     2    1   33 1    
     3    1   34 1    
     4    1   35 1    
     5    2    4 ar   
     6    2   15 ar   
     7    2   36 1    
     8    3    5 ar   
     9    3   15 ar   
    10    3   37 1    
    11    4   16 ar   
    12    4   38 1    
    13    5   16 ar   
    14    5   39 1    
    15    6    7 1    
    16    6   17 1    
    17    6   40 1    
    18    6   41 1    
    19    7   17 1    
    20    7   42 1    
    21    7   43 1    
    22    8   12 1    
    23    8   18 1    
    24    8   44 1    
    25    8   45 1    
    26    9   13 1    
    27    9   18 1    
    28    9   46 1    
    29    9   47 1    
    30   10   11 1    
    31   10   21 1    
    32   10   48 1    
    33   10   49 1    
    34   11   21 1    
    35   11   50 1    
    36   11   51 1    
    37   12   25 1    
    38   12   52 1    
    39   12   53 1    
    40   13   25 1    
    41   13   54 1    
    42   13   55 1    
    43   14   21 1    
    44   14   25 1    
    45   14   56 1    
    46   14   57 1    
    47   15   19 1    
    48   16   22 1    
    49   17   26 1    
    50   17   58 1    
    51   18   26 1    
    52   18   59 1    
    53   19   26 am   BACKBONE|DICT|INTERRES
    54   19   28 2    
    55   20   21 1    
    56   20   24 am   BACKBONE|DICT|INTERRES
    57   20   29 2    
    58   22   23 1    
    59   22   27 1    
    60   23   30 1    
    61   23   31 1    
    62   23   32 1    
    63   24   60 1    
    64   24   61 1    
    65   25   62 1    
    66   27   63 1    
@<TRIPOS>SUBSTRUCTURE
     1 <0>         1 GROUP             0       ****    0 ROOT    
@<TRIPOS>MOLECULE
A49_2_3FRJ
63   66    1
SMALL
USER_CHARGES


@<TRIPOS>ATOM
      1 C1         51.0957   28.8029   41.6655 C.3       1 <0>        -0.1800 
      2 C2         52.3222   24.5963   41.6756 C.ar      1 <0>        -0.1150 
      3 C3         51.4056   24.4390   39.4204 C.ar      1 <0>        -0.1150 
      4 C4         52.2396   25.9982   41.6188 C.ar      1 <0>        -0.1150 
      5 C5         51.3213   25.8418   39.3638 C.ar      1 <0>        -0.1150 
      6 C6         51.9548   19.2769   40.2496 C.3       1 <0>        -0.1200 
      7 C7         52.7778   19.3121   38.9892 C.3       1 <0>        -0.1200 
      8 C8         55.4871   21.8051   39.6226 C.3       1 <0>        -0.1200 
      9 C9         53.8584   22.3451   37.7712 C.3       1 <0>        -0.1200 
     10 C10        59.9216   23.0300   35.8834 C.3       1 <0>        -0.1200 
     11 C11        59.8722   22.8760   37.3710 C.3       1 <0>        -0.1200 
     12 C12        56.5696   22.5933   38.8613 C.3       1 <0>         0.1500 
     13 C13        54.9741   23.1160   37.0540 C.3       1 <0>         0.1500 
     14 C14        57.3973   23.1374   36.5706 C.3       1 <0>         0.1500 
     15 C15        51.9126   23.8140   40.5767 C.ar      1 <0>        -0.1150 
     16 C16        51.7299   26.6361   40.4632 C.ar      1 <0>        -0.1150 
     17 C17        53.1323   20.2290   40.1439 C.3       1 <0>        -0.0149 
     18 C18        54.0747   22.3498   39.2976 C.3       1 <0>         0.0100 
     19 C19        51.9753   22.3243   40.6707 C.2       1 <0>         0.6150 
     20 C20        58.5980   20.8526   36.4332 C.2       1 <0>         0.5000 
     21 C21        58.7196   22.3590   36.5458 C.3       1 <0>         0.0000 
     22 C22        51.6647   28.1624   40.3802 C.3       1 <0>         0.3800 
     23 C23        53.0455   28.7415   39.9956 C.3       1 <0>         0.6171 
     24 N1         59.7162   20.1641   36.1877 N.am      1 <0>        -0.7600 
     25 N2         56.3076   22.5564   37.3975 N.4       1 <0>        -0.1000 
     26 N3         52.9607   21.6581   40.0038 N.am      1 <0>        -0.1151 
     27 O1         50.7753   28.5881   39.3704 O.3       1 <0>        -0.6936 
     28 O2         51.1271   21.7806   41.3747 O.2       1 <0>        -0.5000 
     29 O3         57.5314   20.2610   36.5700 O.2       1 <0>        -0.5000 
     30 F1         53.5248   28.1167   38.9252 F         1 <0>        -0.2057 
     31 F2         53.9362   28.5907   40.9709 F         1 <0>        -0.2057 
     32 F3         52.9234   30.0418   39.7303 F         1 <0>        -0.2057 
     33 H1         51.7169   28.6080   42.5373 H         1 <0>         0.0600 
     34 H2         51.0215   29.8862   41.5738 H         1 <0>         0.0600 
     35 H3         50.0950   28.4266   41.8838 H         1 <0>         0.0600 
     36 H4         52.7050   24.1246   42.5677 H         1 <0>         0.1150 
     37 H5         51.0674   23.8487   38.5795 H         1 <0>         0.1150 
     38 H6         52.5752   26.5710   42.4709 H         1 <0>         0.1150 
     39 H7         50.9426   26.2974   38.4620 H         1 <0>         0.1150 
     40 H8         52.0801   18.4434   40.9323 H         1 <0>         0.0600 
     41 H9         50.9325   19.6440   40.1599 H         1 <0>         0.0600 
     42 H10        52.2947   19.7398   38.1149 H         1 <0>         0.0600 
     43 H11        53.4242   18.4597   38.7922 H         1 <0>         0.0600 
     44 H12        55.6781   21.8583   40.6945 H         1 <0>         0.0600 
     45 H13        55.5784   20.7556   39.3419 H         1 <0>         0.0600 
     46 H14        53.8395   21.3237   37.3927 H         1 <0>         0.0600 
     47 H15        52.8952   22.7841   37.5153 H         1 <0>         0.0600 
     48 H16        60.6769   22.4435   35.3707 H         1 <0>         0.0600 
     49 H17        59.7794   24.0298   35.4766 H         1 <0>         0.0600 
     50 H18        59.6876   23.7566   37.9758 H         1 <0>         0.0600 
     51 H19        60.5234   22.1464   37.8388 H         1 <0>         0.0600 
     52 H20        56.6013   23.6291   39.2109 H         1 <0>         0.0600 
     53 H21        57.5450   22.1581   39.0820 H         1 <0>         0.0600 
     54 H22        54.9274   24.1737   37.3197 H         1 <0>         0.0600 
     55 H23        54.8113   23.0541   35.9753 H         1 <0>         0.0600 
     56 H24        57.0524   23.2426   35.5420 H         1 <0>         0.0600 
     57 H25        57.6011   24.1465   36.9283 H         1 <0>         0.0600 
     58 H26        53.9714   19.9245   40.7696 H         1 <0>         0.0600 
     59 H27        54.1250   23.3929   39.6060 H         1 <0>         0.0600 
     60 H28        59.6628   19.1598   36.0834 H         1 <0>         0.3800 
     61 H29        60.5976   20.6428   36.0866 H         1 <0>         0.3800 
     62 H30        56.2875   21.5768   37.1325 H         1 <0>         0.2900 
     63 H31        50.9245   29.5099   39.2152 H         1 <0>         0.4286 
@<TRIPOS>BOND
     1    1   22 1    
     2    1   33 1    
     3    1   34 1    
     4    1   35 1    
     5    2    4 ar   
     6    2   15 ar   
     7    2   36 1    
     8    3    5 ar   
     9    3   15 ar   
    10    3   37 1    
    11    4   16 ar   
    12    4   38 1    
    13    5   16 ar   
    14    5   39 1    
    15    6    7 1    
    16    6   17 1    
    17    6   40 1    
    18    6   41 1    
    19    7   17 1    
    20    7   42 1    
    21    7   43 1    
    22    8   12 1    
    23    8   18 1    
    24    8   44 1    
    25    8   45 1    
    26    9   13 1    
    27    9   18 1    
    28    9   46 1    
    29    9   47 1    
    30   10   11 1    
    31   10   21 1    
    32   10   48 1    
    33   10   49 1    
    34   11   21 1    
    35   11   50 1    
    36   11   51 1    
    37   12   25 1    
    38   12   52 1    
    39   12   53 1    
    40   13   25 1    
    41   13   54 1    
    42   13   55 1    
    43   14   21 1    
    44   14   25 1    
    45   14   56 1    
    46   14   57 1    
    47   15   19 1    
    48   16   22 1    
    49   17   26 1    
    50   17   58 1    
    51   18   26 1    
    52   18   59 1    
    53   19   26 am   BACKBONE|DICT|INTERRES
    54   19   28 2    
    55   20   21 1    
    56   20   24 am   BACKBONE|DICT|INTERRES
    57   20   29 2    
    58   22   23 1    
    59   22   27 1    
    60   23   30 1    
    61   23   31 1    
    62   23   32 1    
    63   24   60 1    
    64   24   61 1    
    65   25   62 1    
    66   27   63 1    
@<TRIPOS>SUBSTRUCTURE
     1 <0>         1 GROUP             0       ****    0 ROOT    
@<TRIPOS>MOLECULE
A49_2_3FRJ
63   66    1
SMALL
USER_CHARGES


@<TRIPOS>ATOM
      1 C1         51.8530   28.8890   39.2191 C.3       1 <0>        -0.1800 
      2 C2         51.4197   24.5983   39.7985 C.ar      1 <0>        -0.1150 
      3 C3         52.8467   24.7425   41.7682 C.ar      1 <0>        -0.1150 
      4 C4         51.4028   26.0022   39.7124 C.ar      1 <0>        -0.1150 
      5 C5         52.8366   26.1437   41.6765 C.ar      1 <0>        -0.1150 
      6 C6         51.8059   19.3797   40.5702 C.3       1 <0>        -0.1200 
      7 C7         52.5780   19.4052   39.2818 C.3       1 <0>        -0.1200 
      8 C8         55.4676   21.6433   39.7177 C.3       1 <0>        -0.1200 
      9 C9         53.7653   22.3265   38.0007 C.3       1 <0>        -0.1200 
     10 C10        59.8081   23.0692   35.9895 C.3       1 <0>        -0.1200 
     11 C11        59.7235   22.8334   37.4687 C.3       1 <0>        -0.1200 
     12 C12        56.5498   22.3807   38.9057 C.3       1 <0>         0.1500 
     13 C13        54.8775   23.0292   37.2084 C.3       1 <0>         0.1500 
     14 C14        57.2568   23.0060   36.5886 C.3       1 <0>         0.1500 
     15 C15        52.1363   23.9664   40.8325 C.ar      1 <0>        -0.1150 
     16 C16        52.1051   26.7906   40.6537 C.ar      1 <0>        -0.1150 
     17 C17        53.0383   20.2683   40.4429 C.3       1 <0>        -0.0149 
     18 C18        54.0875   22.3037   39.5049 C.3       1 <0>         0.0100 
     19 C19        52.0882   22.4791   40.9930 C.2       1 <0>         0.6150 
     20 C20        58.5765   20.8049   36.4306 C.2       1 <0>         0.5000 
     21 C21        58.6230   22.3082   36.5823 C.3       1 <0>         0.0000 
     22 C22        52.0643   28.3199   40.6267 C.3       1 <0>         0.3800 
     23 C23        50.9599   28.8397   41.5944 C.3       1 <0>         0.6171 
     24 N1         59.7273   20.1782   36.1709 N.am      1 <0>        -0.7600 
     25 N2         56.2050   22.4053   37.4557 N.4       1 <0>        -0.1000 
     26 N3         52.9752   21.7106   40.2955 N.am      1 <0>        -0.1151 
     27 O1         53.3358   28.8434   40.9704 O.3       1 <0>        -0.6936 
     28 O2         51.2415   22.0409   41.7704 O.2       1 <0>        -0.5000 
     29 O3         57.5451   20.1554   36.5704 O.2       1 <0>        -0.5000 
     30 F1         50.9236   30.1708   41.6513 F         1 <0>        -0.2057 
     31 F2         51.1277   28.3552   42.8231 F         1 <0>        -0.2057 
     32 F3         49.7639   28.4389   41.1588 F         1 <0>        -0.2057 
     33 H1         50.8649   28.6634   38.8305 H         1 <0>         0.0600 
     34 H2         51.9463   29.9762   39.2089 H         1 <0>         0.0600 
     35 H3         52.5937   28.4805   38.5327 H         1 <0>         0.0600 
     36 H4         50.8595   24.0097   39.0851 H         1 <0>         0.1150 
     37 H5         53.3890   24.2663   42.5703 H         1 <0>         0.1150 
     38 H6         50.8191   26.4548   38.9252 H         1 <0>         0.1150 
     39 H7         53.3681   26.7214   42.4205 H         1 <0>         0.1150 
     40 H8         51.8731   18.4472   41.1345 H         1 <0>         0.0600 
     41 H9         50.8185   19.8344   40.5581 H         1 <0>         0.0600 
     42 H10        52.0761   19.8758   38.4385 H         1 <0>         0.0600 
     43 H11        53.1827   18.5331   39.0361 H         1 <0>         0.0600 
     44 H12        55.7327   21.6559   40.7759 H         1 <0>         0.0600 
     45 H13        55.4539   20.5977   39.4095 H         1 <0>         0.0600 
     46 H14        53.6522   21.3131   37.6164 H         1 <0>         0.0600 
     47 H15        52.8166   22.8296   37.8228 H         1 <0>         0.0600 
     48 H16        60.5768   22.5325   35.4392 H         1 <0>         0.0600 
     49 H17        59.6443   24.0883   35.6471 H         1 <0>         0.0600 
     50 H18        59.4615   23.6509   38.1329 H         1 <0>         0.0600 
     51 H19        60.4194   22.1205   37.9024 H         1 <0>         0.0600 
     52 H20        56.6761   23.3984   39.2785 H         1 <0>         0.0600 
     53 H21        57.5049   21.8755   39.0553 H         1 <0>         0.0600 
     54 H22        54.9192   24.0884   37.4685 H         1 <0>         0.0600 
     55 H23        54.6405   22.9760   36.1454 H         1 <0>         0.0600 
     56 H24        56.8977   23.0418   35.5612 H         1 <0>         0.0600 
     57 H25        57.3989   24.0432   36.8929 H         1 <0>         0.0600 
     58 H26        53.8813   19.8983   41.0231 H         1 <0>         0.0600 
     59 H27        54.2547   23.3370   39.8043 H         1 <0>         0.0600 
     60 H28        59.7243   19.1748   36.0451 H         1 <0>         0.3800 
     61 H29        60.5819   20.7040   36.0742 H         1 <0>         0.3800 
     62 H30        56.1420   21.4365   37.1599 H         1 <0>         0.2900 
     63 H31        53.9689   28.4615   40.3814 H         1 <0>         0.4286 
@<TRIPOS>BOND
     1    1   22 1    
     2    1   33 1    
     3    1   34 1    
     4    1   35 1    
     5    2    4 ar   
     6    2   15 ar   
     7    2   36 1    
     8    3    5 ar   
     9    3   15 ar   
    10    3   37 1    
    11    4   16 ar   
    12    4   38 1    
    13    5   16 ar   
    14    5   39 1    
    15    6    7 1    
    16    6   17 1    
    17    6   40 1    
    18    6   41 1    
    19    7   17 1    
    20    7   42 1    
    21    7   43 1    
    22    8   12 1    
    23    8   18 1    
    24    8   44 1    
    25    8   45 1    
    26    9   13 1    
    27    9   18 1    
    28    9   46 1    
    29    9   47 1    
    30   10   11 1    
    31   10   21 1    
    32   10   48 1    
    33   10   49 1    
    34   11   21 1    
    35   11   50 1    
    36   11   51 1    
    37   12   25 1    
    38   12   52 1    
    39   12   53 1    
    40   13   25 1    
    41   13   54 1    
    42   13   55 1    
    43   14   21 1    
    44   14   25 1    
    45   14   56 1    
    46   14   57 1    
    47   15   19 1    
    48   16   22 1    
    49   17   26 1    
    50   17   58 1    
    51   18   26 1    
    52   18   59 1    
    53   19   26 am   BACKBONE|DICT|INTERRES
    54   19   28 2    
    55   20   21 1    
    56   20   24 am   BACKBONE|DICT|INTERRES
    57   20   29 2    
    58   22   23 1    
    59   22   27 1    
    60   23   30 1    
    61   23   31 1    
    62   23   32 1    
    63   24   60 1    
    64   24   61 1    
    65   25   62 1    
    66   27   63 1    
@<TRIPOS>SUBSTRUCTURE
     1 <0>         1 GROUP             0       ****    0 ROOT    
@<TRIPOS>MOLECULE
A49_2_3FRJ
63   66    1
SMALL
USER_CHARGES


@<TRIPOS>ATOM
      1 C1         51.6290   28.8882   39.3246 C.3       1 <0>        -0.1800 
      2 C2         51.2785   24.5656   39.8448 C.ar      1 <0>        -0.1150 
      3 C3         52.9233   24.6718   41.6402 C.ar      1 <0>        -0.1150 
      4 C4         51.2478   25.9725   39.7875 C.ar      1 <0>        -0.1150 
      5 C5         52.8956   26.0759   41.5784 C.ar      1 <0>        -0.1150 
      6 C6         51.8932   19.3312   40.5701 C.3       1 <0>        -0.1200 
      7 C7         52.7124   19.3255   39.3090 C.3       1 <0>        -0.1200 
      8 C8         55.5199   21.6437   39.7144 C.3       1 <0>        -0.1200 
      9 C9         53.8100   22.3047   37.9900 C.3       1 <0>        -0.1200 
     10 C10        59.8409   23.0056   35.9047 C.3       1 <0>        -0.1200 
     11 C11        59.8049   22.8108   37.3878 C.3       1 <0>        -0.1200 
     12 C12        56.5922   22.3991   38.9038 C.3       1 <0>         0.1500 
     13 C13        54.9150   23.0220   37.2008 C.3       1 <0>         0.1500 
     14 C14        57.3044   23.0126   36.5871 C.3       1 <0>         0.1500 
     15 C15        52.1105   23.9126   40.7755 C.ar      1 <0>        -0.1150 
     16 C16        52.0517   26.7445   40.6622 C.ar      1 <0>        -0.1150 
     17 C17        53.1126   20.2357   40.4553 C.3       1 <0>        -0.0149 
     18 C18        54.1304   22.2797   39.4967 C.3       1 <0>         0.0100 
     19 C19        52.0694   22.4232   40.9102 C.2       1 <0>         0.6150 
     20 C20        58.5845   20.7778   36.4259 C.2       1 <0>         0.5000 
     21 C21        58.6604   22.2844   36.5552 C.3       1 <0>         0.0000 
     22 C22        51.9783   28.2745   40.6913 C.3       1 <0>         0.3800 
     23 C23        50.9582   28.7289   41.7729 C.3       1 <0>         0.6171 
     24 N1         59.7231   20.1263   36.1717 N.am      1 <0>        -0.7600 
     25 N2         56.2501   22.4168   37.4542 N.4       1 <0>        -0.1000 
     26 N3         53.0180   21.6724   40.2782 N.am      1 <0>        -0.1151 
     27 O1         53.2543   28.8280   40.9692 O.3       1 <0>        -0.6936 
     28 O2         51.1747   21.9647   41.6156 O.2       1 <0>        -0.5000 
     29 O3         57.5381   20.1533   36.5703 O.2       1 <0>        -0.5000 
     30 F1         50.9240   30.0562   41.8870 F         1 <0>        -0.2057 
     31 F2         51.2425   28.1922   42.9601 F         1 <0>        -0.2057 
     32 F3         49.7352   28.3231   41.4251 F         1 <0>        -0.2057 
     33 H1         50.6267   28.6311   38.9863 H         1 <0>         0.0600 
     34 H2         51.6738   29.9787   39.3554 H         1 <0>         0.0600 
     35 H3         52.3362   28.5529   38.5683 H         1 <0>         0.0600 
     36 H4         50.6372   23.9909   39.1924 H         1 <0>         0.1150 
     37 H5         53.5511   24.1815   42.3714 H         1 <0>         0.1150 
     38 H6         50.5749   26.4407   39.0857 H         1 <0>         0.1150 
     39 H7         53.5016   26.6400   42.2735 H         1 <0>         0.1150 
     40 H8         51.9597   18.4434   41.1952 H         1 <0>         0.0600 
     41 H9         50.8940   19.7489   40.4840 H         1 <0>         0.0600 
     42 H10        52.2335   19.7569   38.4322 H         1 <0>         0.0600 
     43 H11        53.3239   18.4455   39.1186 H         1 <0>         0.0600 
     44 H12        55.7820   21.6598   40.7728 H         1 <0>         0.0600 
     45 H13        55.5220   20.5974   39.4054 H         1 <0>         0.0600 
     46 H14        53.7067   21.2908   37.6055 H         1 <0>         0.0600 
     47 H15        52.8551   22.8011   37.8134 H         1 <0>         0.0600 
     48 H16        60.5998   22.4431   35.3704 H         1 <0>         0.0600 
     49 H17        59.6933   24.0180   35.5355 H         1 <0>         0.0600 
     50 H18        59.5757   23.6472   38.0389 H         1 <0>         0.0600 
     51 H19        60.5061   22.1005   37.8147 H         1 <0>         0.0600 
     52 H20        56.6993   23.4193   39.2774 H         1 <0>         0.0600 
     53 H21        57.5558   21.9132   39.0542 H         1 <0>         0.0600 
     54 H22        54.9266   24.0810   37.4601 H         1 <0>         0.0600 
     55 H23        54.6834   22.9660   36.1366 H         1 <0>         0.0600 
     56 H24        56.9251   23.0669   35.5652 H         1 <0>         0.0600 
     57 H25        57.4680   24.0432   36.9021 H         1 <0>         0.0600 
     58 H26        53.9462   19.9026   41.0702 H         1 <0>         0.0600 
     59 H27        54.2780   23.3148   39.7978 H         1 <0>         0.0600 
     60 H28        59.7024   19.1217   36.0648 H         1 <0>         0.3800 
     61 H29        60.5864   20.6357   36.0682 H         1 <0>         0.3800 
     62 H30        56.1994   21.4462   37.1625 H         1 <0>         0.2900 
     63 H31        53.8433   28.5520   40.2845 H         1 <0>         0.4286 
@<TRIPOS>BOND
     1    1   22 1    
     2    1   33 1    
     3    1   34 1    
     4    1   35 1    
     5    2    4 ar   
     6    2   15 ar   
     7    2   36 1    
     8    3    5 ar   
     9    3   15 ar   
    10    3   37 1    
    11    4   16 ar   
    12    4   38 1    
    13    5   16 ar   
    14    5   39 1    
    15    6    7 1    
    16    6   17 1    
    17    6   40 1    
    18    6   41 1    
    19    7   17 1    
    20    7   42 1    
    21    7   43 1    
    22    8   12 1    
    23    8   18 1    
    24    8   44 1    
    25    8   45 1    
    26    9   13 1    
    27    9   18 1    
    28    9   46 1    
    29    9   47 1    
    30   10   11 1    
    31   10   21 1    
    32   10   48 1    
    33   10   49 1    
    34   11   21 1    
    35   11   50 1    
    36   11   51 1    
    37   12   25 1    
    38   12   52 1    
    39   12   53 1    
    40   13   25 1    
    41   13   54 1    
    42   13   55 1    
    43   14   21 1    
    44   14   25 1    
    45   14   56 1    
    46   14   57 1    
    47   15   19 1    
    48   16   22 1    
    49   17   26 1    
    50   17   58 1    
    51   18   26 1    
    52   18   59 1    
    53   19   26 am   BACKBONE|DICT|INTERRES
    54   19   28 2    
    55   20   21 1    
    56   20   24 am   BACKBONE|DICT|INTERRES
    57   20   29 2    
    58   22   23 1    
    59   22   27 1    
    60   23   30 1    
    61   23   31 1    
    62   23   32 1    
    63   24   60 1    
    64   24   61 1    
    65   25   62 1    
    66   27   63 1    
@<TRIPOS>SUBSTRUCTURE
     1 <0>         1 GROUP             0       ****    0 ROOT    
@<TRIPOS>MOLECULE
A49_2_3FRJ
63   66    1
SMALL
USER_CHARGES


@<TRIPOS>ATOM
      1 C1         51.5210   29.0796   39.2986 C.3       1 <0>        -0.1800 
      2 C2         51.7565   24.7732   39.8669 C.ar      1 <0>        -0.1150 
      3 C3         53.0550   25.1029   41.9010 C.ar      1 <0>        -0.1150 
      4 C4         51.5716   26.1654   39.7604 C.ar      1 <0>        -0.1150 
      5 C5         52.8858   26.4918   41.7828 C.ar      1 <0>        -0.1150 
      6 C6         51.7246   19.8878   40.3916 C.3       1 <0>        -0.1200 
      7 C7         52.3947   19.8297   39.0437 C.3       1 <0>        -0.1200 
      8 C8         55.6245   21.9055   39.5612 C.3       1 <0>        -0.1200 
      9 C9         53.9375   22.5223   37.7906 C.3       1 <0>        -0.1200 
     10 C10        60.0379   23.0384   35.8766 C.3       1 <0>        -0.1200 
     11 C11        59.9029   22.8952   37.3649 C.3       1 <0>        -0.1200 
     12 C12        56.7145   22.6175   38.7444 C.3       1 <0>         0.1500 
     13 C13        55.0612   23.2065   36.9916 C.3       1 <0>         0.1500 
     14 C14        57.4756   23.1498   36.4326 C.3       1 <0>         0.1500 
     15 C15        52.4884   24.2360   40.9471 C.ar      1 <0>        -0.1150 
     16 C16        52.1270   27.0404   40.7255 C.ar      1 <0>        -0.1150 
     17 C17        53.0700   20.5651   40.1807 C.3       1 <0>        -0.0149 
     18 C18        54.2505   22.5570   39.2998 C.3       1 <0>         0.0100 
     19 C19        52.5955   22.7536   41.1370 C.2       1 <0>         0.6150 
     20 C20        58.6776   20.8629   36.3967 C.2       1 <0>         0.5000 
     21 C21        58.8009   22.3730   36.4729 C.3       1 <0>         0.0000 
     22 C22        51.8978   28.5564   40.6916 C.3       1 <0>         0.3800 
     23 C23        50.8089   28.9632   41.7245 C.3       1 <0>         0.6171 
     24 N1         59.7928   20.1673   36.1706 N.am      1 <0>        -0.7600 
     25 N2         56.3892   22.6031   37.2896 N.4       1 <0>        -0.1000 
     26 N3         53.1607   22.0066   40.1503 N.am      1 <0>        -0.1151 
     27 O1         53.1069   29.2418   40.9704 O.3       1 <0>        -0.6936 
     28 O2         52.1232   22.2728   42.1703 O.2       1 <0>        -0.5000 
     29 O3         57.6130   20.2716   36.5609 O.2       1 <0>        -0.5000 
     30 F1         51.0854   28.5122   42.9459 F         1 <0>        -0.2057 
     31 F2         49.6329   28.4496   41.3615 F         1 <0>        -0.2057 
     32 F3         50.6777   30.2897   41.7748 F         1 <0>        -0.2057 
     33 H1         50.5530   28.7046   38.9708 H         1 <0>         0.0600 
     34 H2         51.4555   30.1676   39.2791 H         1 <0>         0.0600 
     35 H3         52.2724   28.7815   38.5705 H         1 <0>         0.0600 
     36 H4         51.3028   24.1185   39.1360 H         1 <0>         0.1150 
     37 H5         53.6115   24.7031   42.7365 H         1 <0>         0.1150 
     38 H6         50.9792   26.5373   38.9400 H         1 <0>         0.1150 
     39 H7         53.3158   27.1358   42.5355 H         1 <0>         0.1150 
     40 H8         51.7106   18.9748   40.9843 H         1 <0>         0.0600 
     41 H9         50.8325   20.5051   40.4695 H         1 <0>         0.0600 
     42 H10        51.9269   20.4070   38.2496 H         1 <0>         0.0600 
     43 H11        52.8209   18.8762   38.7365 H         1 <0>         0.0600 
     44 H12        55.8732   21.9541   40.6223 H         1 <0>         0.0600 
     45 H13        55.6126   20.8495   39.2893 H         1 <0>         0.0600 
     46 H14        53.8394   21.4936   37.4442 H         1 <0>         0.0600 
     47 H15        52.9847   23.0134   37.5856 H         1 <0>         0.0600 
     48 H16        60.8034   22.4439   35.3909 H         1 <0>         0.0600 
     49 H17        59.9141   24.0336   35.4552 H         1 <0>         0.0600 
     50 H18        59.6874   23.7875   37.9450 H         1 <0>         0.0600 
     51 H19        60.5234   22.1663   37.8773 H         1 <0>         0.0600 
     52 H20        56.8384   23.6428   39.0909 H         1 <0>         0.0600 
     53 H21        57.6638   22.1158   38.9263 H         1 <0>         0.0600 
     54 H22        55.0773   24.2723   37.2170 H         1 <0>         0.0600 
     55 H23        54.8501   23.1172   35.9242 H         1 <0>         0.0600 
     56 H24        57.1422   23.2205   35.3880 H         1 <0>         0.0600 
     57 H25        57.6865   24.1734   36.7457 H         1 <0>         0.0600 
     58 H26        53.9002   20.0555   40.6668 H         1 <0>         0.0600 
     59 H27        54.4045   23.6091   39.5397 H         1 <0>         0.0600 
     60 H28        59.7325   19.1601   36.1010 H         1 <0>         0.3800 
     61 H29        60.6760   20.6400   36.0508 H         1 <0>         0.3800 
     62 H30        56.3256   21.6242   37.0295 H         1 <0>         0.2900 
     63 H31        52.9221   30.1727   41.0655 H         1 <0>         0.4286 
@<TRIPOS>BOND
     1    1   22 1    
     2    1   33 1    
     3    1   34 1    
     4    1   35 1    
     5    2    4 ar   
     6    2   15 ar   
     7    2   36 1    
     8    3    5 ar   
     9    3   15 ar   
    10    3   37 1    
    11    4   16 ar   
    12    4   38 1    
    13    5   16 ar   
    14    5   39 1    
    15    6    7 1    
    16    6   17 1    
    17    6   40 1    
    18    6   41 1    
    19    7   17 1    
    20    7   42 1    
    21    7   43 1    
    22    8   12 1    
    23    8   18 1    
    24    8   44 1    
    25    8   45 1    
    26    9   13 1    
    27    9   18 1    
    28    9   46 1    
    29    9   47 1    
    30   10   11 1    
    31   10   21 1    
    32   10   48 1    
    33   10   49 1    
    34   11   21 1    
    35   11   50 1    
    36   11   51 1    
    37   12   25 1    
    38   12   52 1    
    39   12   53 1    
    40   13   25 1    
    41   13   54 1    
    42   13   55 1    
    43   14   21 1    
    44   14   25 1    
    45   14   56 1    
    46   14   57 1    
    47   15   19 1    
    48   16   22 1    
    49   17   26 1    
    50   17   58 1    
    51   18   26 1    
    52   18   59 1    
    53   19   26 am   BACKBONE|DICT|INTERRES
    54   19   28 2    
    55   20   21 1    
    56   20   24 am   BACKBONE|DICT|INTERRES
    57   20   29 2    
    58   22   23 1    
    59   22   27 1    
    60   23   30 1    
    61   23   31 1    
    62   23   32 1    
    63   24   60 1    
    64   24   61 1    
    65   25   62 1    
    66   27   63 1    
@<TRIPOS>SUBSTRUCTURE
     1 <0>         1 GROUP             0       ****    0 ROOT    
@<TRIPOS>MOLECULE
A49_2_3FRJ
63   66    1
SMALL
USER_CHARGES


@<TRIPOS>ATOM
      1 C1         51.7189   28.8781   39.3138 C.3       1 <0>        -0.1800 
      2 C2         51.4089   24.5611   39.7929 C.ar      1 <0>        -0.1150 
      3 C3         52.9276   24.6681   41.6992 C.ar      1 <0>        -0.1150 
      4 C4         51.3873   25.9674   39.7310 C.ar      1 <0>        -0.1150 
      5 C5         52.9117   26.0712   41.6305 C.ar      1 <0>        -0.1150 
      6 C6         51.9221   19.3346   40.5694 C.3       1 <0>        -0.1200 
      7 C7         52.7200   19.3283   39.2972 C.3       1 <0>        -0.1200 
      8 C8         55.5595   21.6433   39.7096 C.3       1 <0>        -0.1200 
      9 C9         53.8476   22.2837   37.9829 C.3       1 <0>        -0.1200 
     10 C10        59.8757   23.0129   35.8844 C.3       1 <0>        -0.1200 
     11 C11        59.8280   22.8536   37.3704 C.3       1 <0>        -0.1200 
     12 C12        56.6285   22.3993   38.8952 C.3       1 <0>         0.1500 
     13 C13        54.9473   23.0057   37.1896 C.3       1 <0>         0.1500 
     14 C14        57.3346   23.0132   36.5780 C.3       1 <0>         0.1500 
     15 C15        52.1710   23.9104   40.7832 C.ar      1 <0>        -0.1150 
     16 C16        52.1326   26.7396   40.6566 C.ar      1 <0>        -0.1150 
     17 C17        53.1461   20.2292   40.4421 C.3       1 <0>        -0.0149 
     18 C18        54.1685   22.2726   39.4875 C.3       1 <0>         0.0100 
     19 C19        52.1207   22.4210   40.9165 C.2       1 <0>         0.6150 
     20 C20        58.6301   20.7902   36.4249 C.2       1 <0>         0.5000 
     21 C21        58.6951   22.2966   36.5440 C.3       1 <0>         0.0000 
     22 C22        52.0589   28.2688   40.6844 C.3       1 <0>         0.3800 
     23 C23        51.0218   28.7167   41.7524 C.3       1 <0>         0.6171 
     24 N1         59.7711   20.1443   36.1710 N.am      1 <0>        -0.7600 
     25 N2         56.2858   22.4101   37.4452 N.4       1 <0>        -0.1000 
     26 N3         53.0585   21.6659   40.2734 N.am      1 <0>        -0.1151 
     27 O1         53.3365   28.8182   40.9704 O.3       1 <0>        -0.6936 
     28 O2         51.2263   21.9661   41.6265 O.2       1 <0>        -0.5000 
     29 O3         57.5890   20.1577   36.5702 O.2       1 <0>        -0.5000 
     30 F1         50.9334   30.0444   41.8331 F         1 <0>        -0.2057 
     31 F2         51.3221   28.2223   42.9539 F         1 <0>        -0.2057 
     32 F3         49.8143   28.2599   41.4143 F         1 <0>        -0.2057 
     33 H1         50.7126   28.6281   38.9756 H         1 <0>         0.0600 
     34 H2         51.7764   29.9681   39.3418 H         1 <0>         0.0600 
     35 H3         52.4258   28.5334   38.5619 H         1 <0>         0.0600 
     36 H4         50.8119   23.9845   39.0992 H         1 <0>         0.1150 
     37 H5         53.5003   24.1781   42.4758 H         1 <0>         0.1150 
     38 H6         50.7634   26.4366   38.9842 H         1 <0>         0.1150 
     39 H7         53.4711   26.6371   42.3615 H         1 <0>         0.1150 
     40 H8         51.9929   18.4441   41.1911 H         1 <0>         0.0600 
     41 H9         50.9226   19.7568   40.4948 H         1 <0>         0.0600 
     42 H10        52.2344   19.7683   38.4291 H         1 <0>         0.0600 
     43 H11        53.3233   18.4454   39.0938 H         1 <0>         0.0600 
     44 H12        55.8189   21.6674   40.7690 H         1 <0>         0.0600 
     45 H13        55.5640   20.5954   39.4073 H         1 <0>         0.0600 
     46 H14        53.7550   21.2654   37.6060 H         1 <0>         0.0600 
     47 H15        52.8878   22.7687   37.8013 H         1 <0>         0.0600 
     48 H16        60.6452   22.4454   35.3701 H         1 <0>         0.0600 
     49 H17        59.7232   24.0153   35.4912 H         1 <0>         0.0600 
     50 H18        59.6090   23.7265   37.9756 H         1 <0>         0.0600 
     51 H19        60.5233   22.1563   37.8284 H         1 <0>         0.0600 
     52 H20        56.7315   23.4222   39.2611 H         1 <0>         0.0600 
     53 H21        57.5946   21.9183   39.0486 H         1 <0>         0.0600 
     54 H22        54.9557   24.0653   37.4452 H         1 <0>         0.0600 
     55 H23        54.7137   22.9425   36.1271 H         1 <0>         0.0600 
     56 H24        56.9566   23.0657   35.5577 H         1 <0>         0.0600 
     57 H25        57.4908   24.0455   36.8913 H         1 <0>         0.0600 
     58 H26        53.9865   19.8872   41.0447 H         1 <0>         0.0600 
     59 H27        54.3127   23.3104   39.7803 H         1 <0>         0.0600 
     60 H28        59.7496   19.1385   36.0689 H         1 <0>         0.3800 
     61 H29        60.6346   20.6547   36.0648 H         1 <0>         0.3800 
     62 H30        56.2392   21.4397   37.1535 H         1 <0>         0.2900 
     63 H31        53.9281   28.5382   40.2887 H         1 <0>         0.4286 
@<TRIPOS>BOND
     1    1   22 1    
     2    1   33 1    
     3    1   34 1    
     4    1   35 1    
     5    2    4 ar   
     6    2   15 ar   
     7    2   36 1    
     8    3    5 ar   
     9    3   15 ar   
    10    3   37 1    
    11    4   16 ar   
    12    4   38 1    
    13    5   16 ar   
    14    5   39 1    
    15    6    7 1    
    16    6   17 1    
    17    6   40 1    
    18    6   41 1    
    19    7   17 1    
    20    7   42 1    
    21    7   43 1    
    22    8   12 1    
    23    8   18 1    
    24    8   44 1    
    25    8   45 1    
    26    9   13 1    
    27    9   18 1    
    28    9   46 1    
    29    9   47 1    
    30   10   11 1    
    31   10   21 1    
    32   10   48 1    
    33   10   49 1    
    34   11   21 1    
    35   11   50 1    
    36   11   51 1    
    37   12   25 1    
    38   12   52 1    
    39   12   53 1    
    40   13   25 1    
    41   13   54 1    
    42   13   55 1    
    43   14   21 1    
    44   14   25 1    
    45   14   56 1    
    46   14   57 1    
    47   15   19 1    
    48   16   22 1    
    49   17   26 1    
    50   17   58 1    
    51   18   26 1    
    52   18   59 1    
    53   19   26 am   BACKBONE|DICT|INTERRES
    54   19   28 2    
    55   20   21 1    
    56   20   24 am   BACKBONE|DICT|INTERRES
    57   20   29 2    
    58   22   23 1    
    59   22   27 1    
    60   23   30 1    
    61   23   31 1    
    62   23   32 1    
    63   24   60 1    
    64   24   61 1    
    65   25   62 1    
    66   27   63 1    
@<TRIPOS>SUBSTRUCTURE
     1 <0>         1 GROUP             0       ****    0 ROOT    
@<TRIPOS>MOLECULE
A49_2_3FRJ
63   66    1
SMALL
USER_CHARGES


@<TRIPOS>ATOM
      1 C1         51.5667   28.8990   39.3702 C.3       1 <0>        -0.1800 
      2 C2         51.2386   24.5727   39.9066 C.ar      1 <0>        -0.1150 
      3 C3         52.9803   24.6789   41.6069 C.ar      1 <0>        -0.1150 
      4 C4         51.2042   25.9789   39.8531 C.ar      1 <0>        -0.1150 
      5 C5         52.9487   26.0831   41.5486 C.ar      1 <0>        -0.1150 
      6 C6         51.9066   19.3356   40.5708 C.3       1 <0>        -0.1200 
      7 C7         52.7163   19.3328   39.3054 C.3       1 <0>        -0.1200 
      8 C8         55.5326   21.6464   39.7148 C.3       1 <0>        -0.1200 
      9 C9         53.8185   22.2963   37.9919 C.3       1 <0>        -0.1200 
     10 C10        59.8427   23.0174   35.8968 C.3       1 <0>        -0.1200 
     11 C11        59.8072   22.8374   37.3812 C.3       1 <0>        -0.1200 
     12 C12        56.6019   22.4021   38.9028 C.3       1 <0>         0.1500 
     13 C13        54.9197   23.0149   37.1988 C.3       1 <0>         0.1500 
     14 C14        57.3063   23.0137   36.5865 C.3       1 <0>         0.1500 
     15 C15        52.1241   23.9188   40.7857 C.ar      1 <0>        -0.1150 
     16 C16        52.0539   26.7502   40.6800 C.ar      1 <0>        -0.1150 
     17 C17        53.1273   20.2375   40.4543 C.3       1 <0>        -0.0149 
     18 C18        54.1430   22.2813   39.4966 C.3       1 <0>         0.0100 
     19 C19        52.0861   22.4271   40.9188 C.2       1 <0>         0.6150 
     20 C20        58.5982   20.7882   36.4272 C.2       1 <0>         0.5000 
     21 C21        58.6666   22.2937   36.5555 C.3       1 <0>         0.0000 
     22 C22        51.9690   28.2806   40.7205 C.3       1 <0>         0.3800 
     23 C23        50.9776   28.7158   41.8364 C.3       1 <0>         0.6171 
     24 N1         59.7379   20.1407   36.1719 N.am      1 <0>        -0.7600 
     25 N2         56.2568   22.4147   37.4543 N.4       1 <0>        -0.1000 
     26 N3         53.0343   21.6757   40.2857 N.am      1 <0>        -0.1151 
     27 O1         53.2473   28.8428   40.9701 O.3       1 <0>        -0.6936 
     28 O2         51.1873   21.9662   41.6190 O.2       1 <0>        -0.5000 
     29 O3         57.5547   20.1586   36.5697 O.2       1 <0>        -0.5000 
     30 F1         50.9236   30.0425   41.9620 F         1 <0>        -0.2057 
     31 F2         51.3128   28.1736   43.0065 F         1 <0>        -0.2057 
     32 F3         49.7494   28.2957   41.5309 F         1 <0>        -0.2057 
     33 H1         50.5444   28.6498   39.0893 H         1 <0>         0.0600 
     34 H2         51.6193   29.9884   39.4054 H         1 <0>         0.0600 
     35 H3         52.2266   28.5639   38.5708 H         1 <0>         0.0600 
     36 H4         50.5597   23.9984   39.2926 H         1 <0>         0.1150 
     37 H5         53.6460   24.1891   42.3041 H         1 <0>         0.1150 
     38 H6         50.4924   26.4472   39.1927 H         1 <0>         0.1150 
     39 H7         53.5872   26.6462   42.2137 H         1 <0>         0.1150 
     40 H8         51.9750   18.4441   41.1909 H         1 <0>         0.0600 
     41 H9         50.9092   19.7587   40.4936 H         1 <0>         0.0600 
     42 H10        52.2327   19.7688   38.4336 H         1 <0>         0.0600 
     43 H11        53.3233   18.4518   39.1080 H         1 <0>         0.0600 
     44 H12        55.7961   21.6668   40.7735 H         1 <0>         0.0600 
     45 H13        55.5371   20.5994   39.4085 H         1 <0>         0.0600 
     46 H14        53.7217   21.2813   37.6090 H         1 <0>         0.0600 
     47 H15        52.8607   22.7880   37.8153 H         1 <0>         0.0600 
     48 H16        60.6085   22.4555   35.3705 H         1 <0>         0.0600 
     49 H17        59.6945   24.0282   35.5245 H         1 <0>         0.0600 
     50 H18        59.5811   23.6853   38.0180 H         1 <0>         0.0600 
     51 H19        60.5165   22.1385   37.8152 H         1 <0>         0.0600 
     52 H20        56.7061   23.4231   39.2720 H         1 <0>         0.0600 
     53 H21        57.5667   21.9182   39.0552 H         1 <0>         0.0600 
     54 H22        54.9269   24.0747   37.4556 H         1 <0>         0.0600 
     55 H23        54.6853   22.9539   36.1355 H         1 <0>         0.0600 
     56 H24        56.9296   23.0641   35.5647 H         1 <0>         0.0600 
     57 H25        57.4630   24.0439   36.9003 H         1 <0>         0.0600 
     58 H26        53.9645   19.9007   41.0632 H         1 <0>         0.0600 
     59 H27        54.2882   23.3191   39.7873 H         1 <0>         0.0600 
     60 H28        59.7182   19.1359   36.0658 H         1 <0>         0.3800 
     61 H29        60.6015   20.6515   36.0669 H         1 <0>         0.3800 
     62 H30        56.2071   21.4435   37.1656 H         1 <0>         0.2900 
     63 H31        53.8185   28.5813   40.2651 H         1 <0>         0.4286 
@<TRIPOS>BOND
     1    1   22 1    
     2    1   33 1    
     3    1   34 1    
     4    1   35 1    
     5    2    4 ar   
     6    2   15 ar   
     7    2   36 1    
     8    3    5 ar   
     9    3   15 ar   
    10    3   37 1    
    11    4   16 ar   
    12    4   38 1    
    13    5   16 ar   
    14    5   39 1    
    15    6    7 1    
    16    6   17 1    
    17    6   40 1    
    18    6   41 1    
    19    7   17 1    
    20    7   42 1    
    21    7   43 1    
    22    8   12 1    
    23    8   18 1    
    24    8   44 1    
    25    8   45 1    
    26    9   13 1    
    27    9   18 1    
    28    9   46 1    
    29    9   47 1    
    30   10   11 1    
    31   10   21 1    
    32   10   48 1    
    33   10   49 1    
    34   11   21 1    
    35   11   50 1    
    36   11   51 1    
    37   12   25 1    
    38   12   52 1    
    39   12   53 1    
    40   13   25 1    
    41   13   54 1    
    42   13   55 1    
    43   14   21 1    
    44   14   25 1    
    45   14   56 1    
    46   14   57 1    
    47   15   19 1    
    48   16   22 1    
    49   17   26 1    
    50   17   58 1    
    51   18   26 1    
    52   18   59 1    
    53   19   26 am   BACKBONE|DICT|INTERRES
    54   19   28 2    
    55   20   21 1    
    56   20   24 am   BACKBONE|DICT|INTERRES
    57   20   29 2    
    58   22   23 1    
    59   22   27 1    
    60   23   30 1    
    61   23   31 1    
    62   23   32 1    
    63   24   60 1    
    64   24   61 1    
    65   25   62 1    
    66   27   63 1    
@<TRIPOS>SUBSTRUCTURE
     1 <0>         1 GROUP             0       ****    0 ROOT    
@<TRIPOS>MOLECULE
A49_2_3FRJ
63   66    1
SMALL
USER_CHARGES


@<TRIPOS>ATOM
      1 C1         51.6803   28.8805   39.3094 C.3       1 <0>        -0.1800 
      2 C2         51.4410   24.5586   39.8153 C.ar      1 <0>        -0.1150 
      3 C3         52.9069   24.7100   41.7577 C.ar      1 <0>        -0.1150 
      4 C4         51.3955   25.9640   39.7406 C.ar      1 <0>        -0.1150 
      5 C5         52.8678   26.1125   41.6751 C.ar      1 <0>        -0.1150 
      6 C6         51.9011   19.3506   40.5706 C.3       1 <0>        -0.1200 
      7 C7         52.7207   19.3369   39.3131 C.3       1 <0>        -0.1200 
      8 C8         55.5391   21.6433   39.7117 C.3       1 <0>        -0.1200 
      9 C9         53.8218   22.3019   37.9981 C.3       1 <0>        -0.1200 
     10 C10        59.8450   23.0094   35.8874 C.3       1 <0>        -0.1200 
     11 C11        59.8091   22.8394   37.3713 C.3       1 <0>        -0.1200 
     12 C12        56.6093   22.3991   38.9009 C.3       1 <0>         0.1500 
     13 C13        54.9217   23.0213   37.2040 C.3       1 <0>         0.1500 
     14 C14        57.3070   23.0147   36.5847 C.3       1 <0>         0.1500 
     15 C15        52.1856   23.9298   40.8325 C.ar      1 <0>        -0.1150 
     16 C16        52.0999   26.7571   40.6788 C.ar      1 <0>        -0.1150 
     17 C17        53.1297   20.2400   40.4643 C.3       1 <0>        -0.0149 
     18 C18        54.1514   22.2819   39.5016 C.3       1 <0>         0.0100 
     19 C19        52.1517   22.4425   40.9897 C.2       1 <0>         0.6150 
     20 C20        58.5934   20.7886   36.4280 C.2       1 <0>         0.5000 
     21 C21        58.6659   22.2937   36.5492 C.3       1 <0>         0.0000 
     22 C22        52.0136   28.2870   40.6867 C.3       1 <0>         0.3800 
     23 C23        50.9731   28.7509   41.7462 C.3       1 <0>         0.6171 
     24 N1         59.7296   20.1372   36.1712 N.am      1 <0>        -0.7600 
     25 N2         56.2596   22.4168   37.4538 N.4       1 <0>        -0.1000 
     26 N3         53.0462   21.6794   40.2961 N.am      1 <0>        -0.1151 
     27 O1         53.2864   28.8426   40.9701 O.3       1 <0>        -0.6936 
     28 O2         51.3072   21.9980   41.7646 O.2       1 <0>        -0.5000 
     29 O3         57.5493   20.1603   36.5704 O.2       1 <0>        -0.5000 
     30 F1         50.9238   30.0809   41.8384 F         1 <0>        -0.2057 
     31 F2         51.2427   28.2435   42.9486 F         1 <0>        -0.2057 
     32 F3         49.7590   28.3280   41.3878 F         1 <0>        -0.2057 
     33 H1         50.6786   28.6182   38.9733 H         1 <0>         0.0600 
     34 H2         51.7266   29.9697   39.3269 H         1 <0>         0.0600 
     35 H3         52.3904   28.5337   38.5617 H         1 <0>         0.0600 
     36 H4         50.8741   23.9653   39.1110 H         1 <0>         0.1150 
     37 H5         53.4689   24.2385   42.5517 H         1 <0>         0.1150 
     38 H6         50.7892   26.4147   38.9704 H         1 <0>         0.1150 
     39 H7         53.3986   26.6951   42.4152 H         1 <0>         0.1150 
     40 H8         51.9494   18.4435   41.1722 H         1 <0>         0.0600 
     41 H9         50.9123   19.7984   40.4975 H         1 <0>         0.0600 
     42 H10        52.2467   19.7734   38.4356 H         1 <0>         0.0600 
     43 H11        53.3214   18.4481   39.1243 H         1 <0>         0.0600 
     44 H12        55.8023   21.6585   40.7702 H         1 <0>         0.0600 
     45 H13        55.5365   20.5982   39.4002 H         1 <0>         0.0600 
     46 H14        53.7166   21.2877   37.6155 H         1 <0>         0.0600 
     47 H15        52.8670   22.7952   37.8219 H         1 <0>         0.0600 
     48 H16        60.6132   22.4446   35.3703 H         1 <0>         0.0600 
     49 H17        59.6985   24.0166   35.5048 H         1 <0>         0.0600 
     50 H18        59.5832   23.6939   37.9987 H         1 <0>         0.0600 
     51 H19        60.5118   22.1394   37.8133 H         1 <0>         0.0600 
     52 H20        56.7142   23.4196   39.2718 H         1 <0>         0.0600 
     53 H21        57.5746   21.9139   39.0524 H         1 <0>         0.0600 
     54 H22        54.9302   24.0811   37.4646 H         1 <0>         0.0600 
     55 H23        54.6839   22.9653   36.1420 H         1 <0>         0.0600 
     56 H24        56.9289   23.0710   35.5638 H         1 <0>         0.0600 
     57 H25        57.4661   24.0431   36.9022 H         1 <0>         0.0600 
     58 H26        53.9606   19.8969   41.0778 H         1 <0>         0.0600 
     59 H27        54.3059   23.3175   39.8005 H         1 <0>         0.0600 
     60 H28        59.7055   19.1329   36.0648 H         1 <0>         0.3800 
     61 H29        60.5948   20.6447   36.0628 H         1 <0>         0.3800 
     62 H30        56.2068   21.4467   37.1626 H         1 <0>         0.2900 
     63 H31        53.8745   28.5729   40.2838 H         1 <0>         0.4286 
@<TRIPOS>BOND
     1    1   22 1    
     2    1   33 1    
     3    1   34 1    
     4    1   35 1    
     5    2    4 ar   
     6    2   15 ar   
     7    2   36 1    
     8    3    5 ar   
     9    3   15 ar   
    10    3   37 1    
    11    4   16 ar   
    12    4   38 1    
    13    5   16 ar   
    14    5   39 1    
    15    6    7 1    
    16    6   17 1    
    17    6   40 1    
    18    6   41 1    
    19    7   17 1    
    20    7   42 1    
    21    7   43 1    
    22    8   12 1    
    23    8   18 1    
    24    8   44 1    
    25    8   45 1    
    26    9   13 1    
    27    9   18 1    
    28    9   46 1    
    29    9   47 1    
    30   10   11 1    
    31   10   21 1    
    32   10   48 1    
    33   10   49 1    
    34   11   21 1    
    35   11   50 1    
    36   11   51 1    
    37   12   25 1    
    38   12   52 1    
    39   12   53 1    
    40   13   25 1    
    41   13   54 1    
    42   13   55 1    
    43   14   21 1    
    44   14   25 1    
    45   14   56 1    
    46   14   57 1    
    47   15   19 1    
    48   16   22 1    
    49   17   26 1    
    50   17   58 1    
    51   18   26 1    
    52   18   59 1    
    53   19   26 am   BACKBONE|DICT|INTERRES
    54   19   28 2    
    55   20   21 1    
    56   20   24 am   BACKBONE|DICT|INTERRES
    57   20   29 2    
    58   22   23 1    
    59   22   27 1    
    60   23   30 1    
    61   23   31 1    
    62   23   32 1    
    63   24   60 1    
    64   24   61 1    
    65   25   62 1    
    66   27   63 1    
@<TRIPOS>SUBSTRUCTURE
     1 <0>         1 GROUP             0       ****    0 ROOT    
@<TRIPOS>MOLECULE
A49_2_3FRJ
63   66    1
SMALL
USER_CHARGES


@<TRIPOS>ATOM
      1 C1         51.6451   28.8898   39.3252 C.3       1 <0>        -0.1800 
      2 C2         51.3215   24.5701   39.8392 C.ar      1 <0>        -0.1150 
      3 C3         52.8960   24.6877   41.6992 C.ar      1 <0>        -0.1150 
      4 C4         51.2955   25.9765   39.7725 C.ar      1 <0>        -0.1150 
      5 C5         52.8741   26.0906   41.6272 C.ar      1 <0>        -0.1150 
      6 C6         51.8608   19.3419   40.5705 C.3       1 <0>        -0.1200 
      7 C7         52.6802   19.3317   39.3109 C.3       1 <0>        -0.1200 
      8 C8         55.4875   21.6412   39.7117 C.3       1 <0>        -0.1200 
      9 C9         53.7756   22.3154   37.9956 C.3       1 <0>        -0.1200 
     10 C10        59.8218   23.0722   36.0176 C.3       1 <0>        -0.1200 
     11 C11        59.7235   22.8285   37.4959 C.3       1 <0>        -0.1200 
     12 C12        56.5610   22.3908   38.9020 C.3       1 <0>         0.1500 
     13 C13        54.8850   23.0269   37.2057 C.3       1 <0>         0.1500 
     14 C14        57.2643   23.0045   36.5842 C.3       1 <0>         0.1500 
     15 C15        52.1147   23.9237   40.8087 C.ar      1 <0>        -0.1150 
     16 C16        52.0634   26.7524   40.6746 C.ar      1 <0>        -0.1150 
     17 C17        53.0850   20.2396   40.4596 C.3       1 <0>        -0.0149 
     18 C18        54.1015   22.2850   39.5003 C.3       1 <0>         0.0100 
     19 C19        52.0683   22.4344   40.9507 C.2       1 <0>         0.6150 
     20 C20        58.5863   20.8047   36.4371 C.2       1 <0>         0.5000 
     21 C21        58.6312   22.3076   36.5930 C.3       1 <0>         0.0000 
     22 C22        51.9926   28.2833   40.6956 C.3       1 <0>         0.3800 
     23 C23        50.9671   28.7438   41.7708 C.3       1 <0>         0.6171 
     24 N1         59.7341   20.1784   36.1704 N.am      1 <0>        -0.7600 
     25 N2         56.2144   22.4088   37.4542 N.4       1 <0>        -0.1000 
     26 N3         52.9923   21.6778   40.2878 N.am      1 <0>        -0.1151 
     27 O1         53.2710   28.8323   40.9703 O.3       1 <0>        -0.6936 
     28 O2         51.1928   21.9828   41.6864 O.2       1 <0>        -0.5000 
     29 O3         57.5517   20.1591   36.5703 O.2       1 <0>        -0.5000 
     30 F1         50.9234   30.0720   41.8709 F         1 <0>        -0.2057 
     31 F2         51.2520   28.2223   42.9645 F         1 <0>        -0.2057 
     32 F3         49.7470   28.3264   41.4276 F         1 <0>        -0.2057 
     33 H1         50.6367   28.6367   38.9988 H         1 <0>         0.0600 
     34 H2         51.6992   29.9802   39.3489 H         1 <0>         0.0600 
     35 H3         52.3423   28.5450   38.5641 H         1 <0>         0.0600 
     36 H4         50.7091   23.9913   39.1627 H         1 <0>         0.1150 
     37 H5         53.4945   24.2025   42.4575 H         1 <0>         0.1150 
     38 H6         50.6544   26.4396   39.0390 H         1 <0>         0.1150 
     39 H7         53.4533   26.6603   42.3401 H         1 <0>         0.1150 
     40 H8         51.9231   18.4448   41.1859 H         1 <0>         0.0600 
     41 H9         50.8678   19.7763   40.4967 H         1 <0>         0.0600 
     42 H10        52.2044   19.7647   38.4338 H         1 <0>         0.0600 
     43 H11        53.2859   18.4464   39.1232 H         1 <0>         0.0600 
     44 H12        55.7517   21.6539   40.7701 H         1 <0>         0.0600 
     45 H13        55.4819   20.5950   39.4011 H         1 <0>         0.0600 
     46 H14        53.6646   21.3033   37.6059 H         1 <0>         0.0600 
     47 H15        52.8239   22.8192   37.8209 H         1 <0>         0.0600 
     48 H16        60.5958   22.5386   35.4735 H         1 <0>         0.0600 
     49 H17        59.6590   24.0918   35.6774 H         1 <0>         0.0600 
     50 H18        59.4576   23.6453   38.1637 H         1 <0>         0.0600 
     51 H19        60.4171   22.1152   37.9313 H         1 <0>         0.0600 
     52 H20        56.6743   23.4112   39.2717 H         1 <0>         0.0600 
     53 H21        57.5205   21.8960   39.0525 H         1 <0>         0.0600 
     54 H22        54.9164   24.0833   37.4730 H         1 <0>         0.0600 
     55 H23        54.6505   22.9806   36.1422 H         1 <0>         0.0600 
     56 H24        56.9052   23.0278   35.5555 H         1 <0>         0.0600 
     57 H25        57.4026   24.0433   36.8776 H         1 <0>         0.0600 
     58 H26        53.9163   19.9032   41.0791 H         1 <0>         0.0600 
     59 H27        54.2560   23.3190   39.8023 H         1 <0>         0.0600 
     60 H28        59.7256   19.1753   36.0446 H         1 <0>         0.3800 
     61 H29        60.5897   20.7036   36.0795 H         1 <0>         0.3800 
     62 H30        56.1559   21.4391   37.1632 H         1 <0>         0.2900 
     63 H31        53.8621   28.5290   40.2995 H         1 <0>         0.4286 
@<TRIPOS>BOND
     1    1   22 1    
     2    1   33 1    
     3    1   34 1    
     4    1   35 1    
     5    2    4 ar   
     6    2   15 ar   
     7    2   36 1    
     8    3    5 ar   
     9    3   15 ar   
    10    3   37 1    
    11    4   16 ar   
    12    4   38 1    
    13    5   16 ar   
    14    5   39 1    
    15    6    7 1    
    16    6   17 1    
    17    6   40 1    
    18    6   41 1    
    19    7   17 1    
    20    7   42 1    
    21    7   43 1    
    22    8   12 1    
    23    8   18 1    
    24    8   44 1    
    25    8   45 1    
    26    9   13 1    
    27    9   18 1    
    28    9   46 1    
    29    9   47 1    
    30   10   11 1    
    31   10   21 1    
    32   10   48 1    
    33   10   49 1    
    34   11   21 1    
    35   11   50 1    
    36   11   51 1    
    37   12   25 1    
    38   12   52 1    
    39   12   53 1    
    40   13   25 1    
    41   13   54 1    
    42   13   55 1    
    43   14   21 1    
    44   14   25 1    
    45   14   56 1    
    46   14   57 1    
    47   15   19 1    
    48   16   22 1    
    49   17   26 1    
    50   17   58 1    
    51   18   26 1    
    52   18   59 1    
    53   19   26 am   BACKBONE|DICT|INTERRES
    54   19   28 2    
    55   20   21 1    
    56   20   24 am   BACKBONE|DICT|INTERRES
    57   20   29 2    
    58   22   23 1    
    59   22   27 1    
    60   23   30 1    
    61   23   31 1    
    62   23   32 1    
    63   24   60 1    
    64   24   61 1    
    65   25   62 1    
    66   27   63 1    
@<TRIPOS>SUBSTRUCTURE
     1 <0>         1 GROUP             0       ****    0 ROOT    
@<TRIPOS>MOLECULE
A49_2_3FRJ
63   66    1
SMALL
USER_CHARGES


@<TRIPOS>ATOM
      1 C1         51.7183   28.8930   39.3273 C.3       1 <0>        -0.1800 
      2 C2         51.2123   24.5810   39.7893 C.ar      1 <0>        -0.1150 
      3 C3         52.8667   24.6073   41.5835 C.ar      1 <0>        -0.1150 
      4 C4         51.2293   25.9872   39.7548 C.ar      1 <0>        -0.1150 
      5 C5         52.8854   26.0114   41.5434 C.ar      1 <0>        -0.1150 
      6 C6         51.9055   19.2951   40.5701 C.3       1 <0>        -0.1200 
      7 C7         52.7003   19.3047   39.2930 C.3       1 <0>        -0.1200 
      8 C8         55.4817   21.6403   39.6903 C.3       1 <0>        -0.1200 
      9 C9         53.7786   22.3203   37.9675 C.3       1 <0>        -0.1200 
     10 C10        59.8345   23.0528   36.0089 C.3       1 <0>        -0.1200 
     11 C11        59.7238   22.8195   37.4869 C.3       1 <0>        -0.1200 
     12 C12        56.5593   22.3933   38.8881 C.3       1 <0>         0.1500 
     13 C13        54.8908   23.0307   37.1840 C.3       1 <0>         0.1500 
     14 C14        57.2731   23.0040   36.5724 C.3       1 <0>         0.1500 
     15 C15        52.0323   23.8868   40.7034 C.ar      1 <0>        -0.1150 
     16 C16        52.0619   26.7196   40.6362 C.ar      1 <0>        -0.1150 
     17 C17        53.0964   20.2302   40.4262 C.3       1 <0>        -0.0149 
     18 C18        54.0938   22.2829   39.4738 C.3       1 <0>         0.0100 
     19 C19        51.9663   22.3931   40.7896 C.2       1 <0>         0.6150 
     20 C20        58.5823   20.7943   36.4334 C.2       1 <0>         0.5000 
     21 C21        58.6369   22.2990   36.5823 C.3       1 <0>         0.0000 
     22 C22        52.0414   28.2500   40.6853 C.3       1 <0>         0.3800 
     23 C23        51.0275   28.7141   41.7685 C.3       1 <0>         0.6171 
     24 N1         59.7286   20.1620   36.1716 N.am      1 <0>        -0.7600 
     25 N2         56.2188   22.4136   37.4380 N.4       1 <0>        -0.1000 
     26 N3         52.9740   21.6614   40.2340 N.am      1 <0>        -0.1151 
     27 O1         53.3383   28.7525   40.9704 O.3       1 <0>        -0.6936 
     28 O2         51.0025   21.9154   41.3853 O.2       1 <0>        -0.5000 
     29 O3         57.5458   20.1513   36.5700 O.2       1 <0>        -0.5000 
     30 F1         50.9943   30.0412   41.8859 F         1 <0>        -0.2057 
     31 F2         51.3149   28.1743   42.9541 F         1 <0>        -0.2057 
     32 F3         49.8015   28.3154   41.4274 F         1 <0>        -0.2057 
     33 H1         50.7087   28.6759   38.9777 H         1 <0>         0.0600 
     34 H2         51.7988   29.9795   39.3766 H         1 <0>         0.0600 
     35 H3         52.4188   28.5477   38.5693 H         1 <0>         0.0600 
     36 H4         50.5550   24.0354   39.1243 H         1 <0>         0.1150 
     37 H5         53.4838   24.0869   42.3034 H         1 <0>         0.1150 
     38 H6         50.5696   26.4868   39.0624 H         1 <0>         0.1150 
     39 H7         53.5114   26.5457   42.2469 H         1 <0>         0.1150 
     40 H8         52.0231   18.4436   41.2303 H         1 <0>         0.0600 
     41 H9         50.8865   19.6625   40.4869 H         1 <0>         0.0600 
     42 H10        52.2010   19.7214   38.4220 H         1 <0>         0.0600 
     43 H11        53.3314   18.4440   39.0943 H         1 <0>         0.0600 
     44 H12        55.7427   21.6492   40.7497 H         1 <0>         0.0600 
     45 H13        55.4807   20.5964   39.3733 H         1 <0>         0.0600 
     46 H14        53.6611   21.3077   37.5788 H         1 <0>         0.0600 
     47 H15        52.8272   22.8238   37.7950 H         1 <0>         0.0600 
     48 H16        60.6125   22.5121   35.4741 H         1 <0>         0.0600 
     49 H17        59.6760   24.0712   35.6591 H         1 <0>         0.0600 
     50 H18        59.4603   23.6437   38.1478 H         1 <0>         0.0600 
     51 H19        60.4073   22.1038   37.9332 H         1 <0>         0.0600 
     52 H20        56.6710   23.4110   39.2640 H         1 <0>         0.0600 
     53 H21        57.5149   21.8923   39.0415 H         1 <0>         0.0600 
     54 H22        54.9190   24.0867   37.4551 H         1 <0>         0.0600 
     55 H23        54.6566   22.9856   36.1198 H         1 <0>         0.0600 
     56 H24        56.9163   23.0312   35.5431 H         1 <0>         0.0600 
     57 H25        57.4183   24.0433   36.8666 H         1 <0>         0.0600 
     58 H26        53.9415   19.9208   41.0391 H         1 <0>         0.0600 
     59 H27        54.2415   23.3134   39.7891 H         1 <0>         0.0600 
     60 H28        59.7161   19.1592   36.0426 H         1 <0>         0.3800 
     61 H29        60.5892   20.6787   36.0768 H         1 <0>         0.3800 
     62 H30        56.1604   21.4442   37.1456 H         1 <0>         0.2900 
     63 H31        53.9297   28.3877   40.3267 H         1 <0>         0.4286 
@<TRIPOS>BOND
     1    1   22 1    
     2    1   33 1    
     3    1   34 1    
     4    1   35 1    
     5    2    4 ar   
     6    2   15 ar   
     7    2   36 1    
     8    3    5 ar   
     9    3   15 ar   
    10    3   37 1    
    11    4   16 ar   
    12    4   38 1    
    13    5   16 ar   
    14    5   39 1    
    15    6    7 1    
    16    6   17 1    
    17    6   40 1    
    18    6   41 1    
    19    7   17 1    
    20    7   42 1    
    21    7   43 1    
    22    8   12 1    
    23    8   18 1    
    24    8   44 1    
    25    8   45 1    
    26    9   13 1    
    27    9   18 1    
    28    9   46 1    
    29    9   47 1    
    30   10   11 1    
    31   10   21 1    
    32   10   48 1    
    33   10   49 1    
    34   11   21 1    
    35   11   50 1    
    36   11   51 1    
    37   12   25 1    
    38   12   52 1    
    39   12   53 1    
    40   13   25 1    
    41   13   54 1    
    42   13   55 1    
    43   14   21 1    
    44   14   25 1    
    45   14   56 1    
    46   14   57 1    
    47   15   19 1    
    48   16   22 1    
    49   17   26 1    
    50   17   58 1    
    51   18   26 1    
    52   18   59 1    
    53   19   26 am   BACKBONE|DICT|INTERRES
    54   19   28 2    
    55   20   21 1    
    56   20   24 am   BACKBONE|DICT|INTERRES
    57   20   29 2    
    58   22   23 1    
    59   22   27 1    
    60   23   30 1    
    61   23   31 1    
    62   23   32 1    
    63   24   60 1    
    64   24   61 1    
    65   25   62 1    
    66   27   63 1    
@<TRIPOS>SUBSTRUCTURE
     1 <0>         1 GROUP             0       ****    0 ROOT    
@<TRIPOS>MOLECULE
A49_2_3FRJ
63   66    1
SMALL
USER_CHARGES


@<TRIPOS>ATOM
      1 C1         51.7207   28.8889   39.3283 C.3       1 <0>        -0.1800 
      2 C2         51.4478   24.5627   39.6769 C.ar      1 <0>        -0.1150 
      3 C3         52.7898   24.6236   41.7159 C.ar      1 <0>        -0.1150 
      4 C4         51.4380   25.9697   39.6421 C.ar      1 <0>        -0.1150 
      5 C5         52.7945   26.0269   41.6644 C.ar      1 <0>        -0.1150 
      6 C6         51.9262   19.3117   40.4673 C.3       1 <0>        -0.1200 
      7 C7         52.7495   19.3167   39.2076 C.3       1 <0>        -0.1200 
      8 C8         55.5364   21.6442   39.6662 C.3       1 <0>        -0.1200 
      9 C9         53.8433   22.3153   37.9324 C.3       1 <0>        -0.1200 
     10 C10        59.8847   23.0119   35.8835 C.3       1 <0>        -0.1200 
     11 C11        59.8358   22.8511   37.3706 C.3       1 <0>        -0.1200 
     12 C12        56.6157   22.4049   38.8744 C.3       1 <0>         0.1500 
     13 C13        54.9558   23.0365   37.1601 C.3       1 <0>         0.1500 
     14 C14        57.3470   23.0255   36.5708 C.3       1 <0>         0.1500 
     15 C15        52.1116   23.8873   40.7220 C.ar      1 <0>        -0.1150 
     16 C16        52.1037   26.7191   40.6423 C.ar      1 <0>        -0.1150 
     17 C17        53.1347   20.2248   40.3619 C.3       1 <0>        -0.0149 
     18 C18        54.1470   22.2808   39.4420 C.3       1 <0>         0.0100 
     19 C19        52.0575   22.3935   40.8147 C.2       1 <0>         0.6150 
     20 C20        58.6306   20.7938   36.4236 C.2       1 <0>         0.5000 
     21 C21        58.7020   22.2996   36.5425 C.3       1 <0>         0.0000 
     22 C22        52.0579   28.2511   40.6855 C.3       1 <0>         0.3800 
     23 C23        51.0301   28.7153   41.7614 C.3       1 <0>         0.6171 
     24 N1         59.7687   20.1415   36.1712 N.am      1 <0>        -0.7600 
     25 N2         56.2861   22.4247   37.4233 N.4       1 <0>        -0.1000 
     26 N3         53.0267   21.6588   40.1983 N.am      1 <0>        -0.1151 
     27 O1         53.3469   28.7651   40.9704 O.3       1 <0>        -0.6936 
     28 O2         51.1357   21.9131   41.4715 O.2       1 <0>        -0.5000 
     29 O3         57.5869   20.1662   36.5702 O.2       1 <0>        -0.5000 
     30 F1         50.9658   30.0433   41.8474 F         1 <0>        -0.2057 
     31 F2         51.3192   28.2117   42.9615 F         1 <0>        -0.2057 
     32 F3         49.8153   28.2803   41.4236 F         1 <0>        -0.2057 
     33 H1         50.7116   28.6498   38.9937 H         1 <0>         0.0600 
     34 H2         51.7854   29.9756   39.3746 H         1 <0>         0.0600 
     35 H3         52.4216   28.5531   38.5693 H         1 <0>         0.0600 
     36 H4         50.9197   24.0027   38.9184 H         1 <0>         0.1150 
     37 H5         53.2863   24.1193   42.5341 H         1 <0>         0.1150 
     38 H6         50.8912   26.4502   38.8452 H         1 <0>         0.1150 
     39 H7         53.3027   26.5780   42.4441 H         1 <0>         0.1150 
     40 H8         52.0085   18.4437   41.1143 H         1 <0>         0.0600 
     41 H9         50.9235   19.7128   40.3695 H         1 <0>         0.0600 
     42 H10        52.2706   19.7472   38.3317 H         1 <0>         0.0600 
     43 H11        53.3676   18.4441   39.0123 H         1 <0>         0.0600 
     44 H12        55.7860   21.6524   40.7274 H         1 <0>         0.0600 
     45 H13        55.5402   20.6005   39.3499 H         1 <0>         0.0600 
     46 H14        53.7471   21.3027   37.5391 H         1 <0>         0.0600 
     47 H15        52.8890   22.8106   37.7466 H         1 <0>         0.0600 
     48 H16        60.6554   22.4443   35.3703 H         1 <0>         0.0600 
     49 H17        59.7233   24.0113   35.4852 H         1 <0>         0.0600 
     50 H18        59.6208   23.7268   37.9764 H         1 <0>         0.0600 
     51 H19        60.5174   22.1456   37.8328 H         1 <0>         0.0600 
     52 H20        56.7152   23.4228   39.2504 H         1 <0>         0.0600 
     53 H21        57.5775   21.9180   39.0323 H         1 <0>         0.0600 
     54 H22        54.9725   24.0936   37.4284 H         1 <0>         0.0600 
     55 H23        54.7359   22.9924   36.0921 H         1 <0>         0.0600 
     56 H24        56.9822   23.0939   35.5446 H         1 <0>         0.0600 
     57 H25        57.5112   24.0498   36.8981 H         1 <0>         0.0600 
     58 H26        53.9626   19.8963   40.9887 H         1 <0>         0.0600 
     59 H27        54.2870   23.3142   39.7588 H         1 <0>         0.0600 
     60 H28        59.7442   19.1372   36.0640 H         1 <0>         0.3800 
     61 H29        60.6339   20.6484   36.0602 H         1 <0>         0.3800 
     62 H30        56.2336   21.4562   37.1261 H         1 <0>         0.2900 
     63 H31        53.9439   28.4207   40.3220 H         1 <0>         0.4286 
@<TRIPOS>BOND
     1    1   22 1    
     2    1   33 1    
     3    1   34 1    
     4    1   35 1    
     5    2    4 ar   
     6    2   15 ar   
     7    2   36 1    
     8    3    5 ar   
     9    3   15 ar   
    10    3   37 1    
    11    4   16 ar   
    12    4   38 1    
    13    5   16 ar   
    14    5   39 1    
    15    6    7 1    
    16    6   17 1    
    17    6   40 1    
    18    6   41 1    
    19    7   17 1    
    20    7   42 1    
    21    7   43 1    
    22    8   12 1    
    23    8   18 1    
    24    8   44 1    
    25    8   45 1    
    26    9   13 1    
    27    9   18 1    
    28    9   46 1    
    29    9   47 1    
    30   10   11 1    
    31   10   21 1    
    32   10   48 1    
    33   10   49 1    
    34   11   21 1    
    35   11   50 1    
    36   11   51 1    
    37   12   25 1    
    38   12   52 1    
    39   12   53 1    
    40   13   25 1    
    41   13   54 1    
    42   13   55 1    
    43   14   21 1    
    44   14   25 1    
    45   14   56 1    
    46   14   57 1    
    47   15   19 1    
    48   16   22 1    
    49   17   26 1    
    50   17   58 1    
    51   18   26 1    
    52   18   59 1    
    53   19   26 am   BACKBONE|DICT|INTERRES
    54   19   28 2    
    55   20   21 1    
    56   20   24 am   BACKBONE|DICT|INTERRES
    57   20   29 2    
    58   22   23 1    
    59   22   27 1    
    60   23   30 1    
    61   23   31 1    
    62   23   32 1    
    63   24   60 1    
    64   24   61 1    
    65   25   62 1    
    66   27   63 1    
@<TRIPOS>SUBSTRUCTURE
     1 <0>         1 GROUP             0       ****    0 ROOT    
@<TRIPOS>MOLECULE
A49_2_3FRJ
63   66    1
SMALL
USER_CHARGES


@<TRIPOS>ATOM
      1 C1         51.8993   28.8439   39.2217 C.3       1 <0>        -0.1800 
      2 C2         51.5064   24.5377   39.5968 C.ar      1 <0>        -0.1150 
      3 C3         52.7078   24.5975   41.7185 C.ar      1 <0>        -0.1150 
      4 C4         51.5166   25.9439   39.5516 C.ar      1 <0>        -0.1150 
      5 C5         52.7273   26.0021   41.6641 C.ar      1 <0>        -0.1150 
      6 C6         51.9253   19.3026   40.3294 C.3       1 <0>        -0.1200 
      7 C7         52.7699   19.3128   39.0860 C.3       1 <0>        -0.1200 
      8 C8         55.5304   21.6608   39.6227 C.3       1 <0>        -0.1200 
      9 C9         53.8618   22.3316   37.8572 C.3       1 <0>        -0.1200 
     10 C10        59.9088   23.0154   35.8827 C.3       1 <0>        -0.1200 
     11 C11        59.8577   22.8586   37.3705 C.3       1 <0>        -0.1200 
     12 C12        56.6155   22.4365   38.8561 C.3       1 <0>         0.1500 
     13 C13        54.9804   23.0662   37.1081 C.3       1 <0>         0.1500 
     14 C14        57.3816   23.0630   36.5704 C.3       1 <0>         0.1500 
     15 C15        52.0996   23.8612   40.6806 C.ar      1 <0>        -0.1150 
     16 C16        52.1244   26.6926   40.5872 C.ar      1 <0>        -0.1150 
     17 C17        53.1337   20.2146   40.2522 C.3       1 <0>        -0.0149 
     18 C18        54.1415   22.2905   39.3718 C.3       1 <0>         0.0100 
     19 C19        52.0570   22.3676   40.7552 C.2       1 <0>         0.6150 
     20 C20        58.6351   20.8080   36.4227 C.2       1 <0>         0.5000 
     21 C21        58.7224   22.3159   36.5394 C.3       1 <0>         0.0000 
     22 C22        52.1054   28.2236   40.6094 C.3       1 <0>         0.3800 
     23 C23        50.9998   28.7181   41.5886 C.3       1 <0>         0.6171 
     24 N1         59.7652   20.1447   36.1708 N.am      1 <0>        -0.7600 
     25 N2         56.3073   22.4616   37.3995 N.4       1 <0>        -0.1000 
     26 N3         53.0185   21.6499   40.1067 N.am      1 <0>        -0.1151 
     27 O1         53.3834   28.7212   40.9704 O.3       1 <0>        -0.6936 
     28 O2         51.1545   21.8685   41.4212 O.2       1 <0>        -0.5000 
     29 O3         57.5861   20.1886   36.5704 O.2       1 <0>        -0.5000 
     30 F1         50.9239   30.0480   41.6349 F         1 <0>        -0.2057 
     31 F2         51.1938   28.2504   42.8215 F         1 <0>        -0.2057 
     32 F3         49.8133   28.2724   41.1704 F         1 <0>        -0.2057 
     33 H1         50.9151   28.6292   38.8171 H         1 <0>         0.0600 
     34 H2         51.9918   29.9314   39.2534 H         1 <0>         0.0600 
     35 H3         52.6464   28.4669   38.5255 H         1 <0>         0.0600 
     36 H4         51.0223   23.9825   38.8042 H         1 <0>         0.1150 
     37 H5         53.1486   24.0959   42.5688 H         1 <0>         0.1150 
     38 H6         51.0315   26.4246   38.7165 H         1 <0>         0.1150 
     39 H7         53.1842   26.5525   42.4755 H         1 <0>         0.1150 
     40 H8         52.0000   18.4436   40.9858 H         1 <0>         0.0600 
     41 H9         50.9238   19.7041   40.2153 H         1 <0>         0.0600 
     42 H10        52.3108   19.7490   38.2015 H         1 <0>         0.0600 
     43 H11        53.3948   18.4436   38.8992 H         1 <0>         0.0600 
     44 H12        55.7606   21.6620   40.6890 H         1 <0>         0.0600 
     45 H13        55.5527   20.6206   39.2949 H         1 <0>         0.0600 
     46 H14        53.7807   21.3211   37.4572 H         1 <0>         0.0600 
     47 H15        52.9084   22.8197   37.6581 H         1 <0>         0.0600 
     48 H16        60.6771   22.4435   35.3707 H         1 <0>         0.0600 
     49 H17        59.7374   24.0077   35.4713 H         1 <0>         0.0600 
     50 H18        59.6482   23.7349   37.9761 H         1 <0>         0.0600 
     51 H19        60.5235   22.1422   37.8418 H         1 <0>         0.0600 
     52 H20        56.6988   23.4534   39.2410 H         1 <0>         0.0600 
     53 H21        57.5797   21.9573   39.0275 H         1 <0>         0.0600 
     54 H22        54.9821   24.1245   37.3707 H         1 <0>         0.0600 
     55 H23        54.7799   23.0134   36.0369 H         1 <0>         0.0600 
     56 H24        57.0288   23.1611   35.5441 H         1 <0>         0.0600 
     57 H25        57.5591   24.0755   36.9237 H         1 <0>         0.0600 
     58 H26        53.9551   19.8822   40.8838 H         1 <0>         0.0600 
     59 H27        54.2655   23.3226   39.6980 H         1 <0>         0.0600 
     60 H28        59.7287   19.1400   36.0655 H         1 <0>         0.3800 
     61 H29        60.6355   20.6423   36.0657 H         1 <0>         0.3800 
     62 H30        56.2638   21.4925   37.1008 H         1 <0>         0.2900 
     63 H31        54.0116   28.3598   40.3635 H         1 <0>         0.4286 
@<TRIPOS>BOND
     1    1   22 1    
     2    1   33 1    
     3    1   34 1    
     4    1   35 1    
     5    2    4 ar   
     6    2   15 ar   
     7    2   36 1    
     8    3    5 ar   
     9    3   15 ar   
    10    3   37 1    
    11    4   16 ar   
    12    4   38 1    
    13    5   16 ar   
    14    5   39 1    
    15    6    7 1    
    16    6   17 1    
    17    6   40 1    
    18    6   41 1    
    19    7   17 1    
    20    7   42 1    
    21    7   43 1    
    22    8   12 1    
    23    8   18 1    
    24    8   44 1    
    25    8   45 1    
    26    9   13 1    
    27    9   18 1    
    28    9   46 1    
    29    9   47 1    
    30   10   11 1    
    31   10   21 1    
    32   10   48 1    
    33   10   49 1    
    34   11   21 1    
    35   11   50 1    
    36   11   51 1    
    37   12   25 1    
    38   12   52 1    
    39   12   53 1    
    40   13   25 1    
    41   13   54 1    
    42   13   55 1    
    43   14   21 1    
    44   14   25 1    
    45   14   56 1    
    46   14   57 1    
    47   15   19 1    
    48   16   22 1    
    49   17   26 1    
    50   17   58 1    
    51   18   26 1    
    52   18   59 1    
    53   19   26 am   BACKBONE|DICT|INTERRES
    54   19   28 2    
    55   20   21 1    
    56   20   24 am   BACKBONE|DICT|INTERRES
    57   20   29 2    
    58   22   23 1    
    59   22   27 1    
    60   23   30 1    
    61   23   31 1    
    62   23   32 1    
    63   24   60 1    
    64   24   61 1    
    65   25   62 1    
    66   27   63 1    
@<TRIPOS>SUBSTRUCTURE
     1 <0>         1 GROUP             0       ****    0 ROOT    
@<TRIPOS>MOLECULE
A49_2_3FRJ
63   66    1
SMALL
USER_CHARGES


@<TRIPOS>ATOM
      1 C1         51.8948   28.8528   39.1615 C.3       1 <0>        -0.1800 
      2 C2         51.4207   24.5529   39.5766 C.ar      1 <0>        -0.1150 
      3 C3         52.6049   24.6241   41.7066 C.ar      1 <0>        -0.1150 
      4 C4         51.4235   25.9600   39.5273 C.ar      1 <0>        -0.1150 
      5 C5         52.6177   26.0285   41.6488 C.ar      1 <0>        -0.1150 
      6 C6         51.9360   19.2974   40.4534 C.3       1 <0>        -0.1200 
      7 C7         52.7717   19.3024   39.2046 C.3       1 <0>        -0.1200 
      8 C8         55.4953   21.6828   39.6618 C.3       1 <0>        -0.1200 
      9 C9         53.8191   22.3398   37.9029 C.3       1 <0>        -0.1200 
     10 C10        59.8676   23.0314   35.9232 C.3       1 <0>        -0.1200 
     11 C11        59.8179   22.8257   37.4050 C.3       1 <0>        -0.1200 
     12 C12        56.5797   22.4400   38.8735 C.3       1 <0>         0.1500 
     13 C13        54.9391   23.0592   37.1393 C.3       1 <0>         0.1500 
     14 C14        57.3356   23.0350   36.5730 C.3       1 <0>         0.1500 
     15 C15        52.0149   23.8811   40.6640 C.ar      1 <0>        -0.1150 
     16 C16        52.0254   26.7144   40.5636 C.ar      1 <0>        -0.1150 
     17 C17        53.1213   20.2400   40.3443 C.3       1 <0>        -0.0149 
     18 C18        54.1031   22.3103   39.4173 C.3       1 <0>         0.0100 
     19 C19        51.9814   22.3856   40.7457 C.2       1 <0>         0.6150 
     20 C20        58.6043   20.7985   36.4282 C.2       1 <0>         0.5000 
     21 C21        58.6841   22.3029   36.5614 C.3       1 <0>         0.0000 
     22 C22        52.0269   28.2473   40.5646 C.3       1 <0>         0.3800 
     23 C23        50.9034   28.7896   41.4966 C.3       1 <0>         0.6171 
     24 N1         59.7387   20.1427   36.1707 N.am      1 <0>        -0.7600 
     25 N2         56.2643   22.4471   37.4195 N.4       1 <0>        -0.1000 
     26 N3         52.9800   21.6690   40.1528 N.am      1 <0>        -0.1151 
     27 O1         53.2938   28.7310   40.9693 O.3       1 <0>        -0.6936 
     28 O2         51.0551   21.8863   41.3799 O.2       1 <0>        -0.5000 
     29 O3         57.5552   20.1763   36.5639 O.2       1 <0>        -0.5000 
     30 F1         50.9236   30.1194   41.5756 F         1 <0>        -0.2057 
     31 F2         50.9888   28.2842   42.7263 F         1 <0>        -0.2057 
     32 F3         49.7156   28.4405   40.9986 F         1 <0>        -0.2057 
     33 H1         50.9228   28.6614   38.7154 H         1 <0>         0.0600 
     34 H2         52.0150   29.9371   39.1849 H         1 <0>         0.0600 
     35 H3         52.6612   28.4502   38.5014 H         1 <0>         0.0600 
     36 H4         50.9477   23.9927   38.7823 H         1 <0>         0.1150 
     37 H5         53.0356   24.1256   42.5640 H         1 <0>         0.1150 
     38 H6         50.9499   26.4405   38.6850 H         1 <0>         0.1150 
     39 H7         53.0660   26.5820   42.4621 H         1 <0>         0.1150 
     40 H8         52.0320   18.4501   41.1254 H         1 <0>         0.0600 
     41 H9         50.9224   19.6670   40.3329 H         1 <0>         0.0600 
     42 H10        52.2910   19.7099   38.3176 H         1 <0>         0.0600 
     43 H11        53.4153   18.4445   39.0308 H         1 <0>         0.0600 
     44 H12        55.7357   21.7006   40.7256 H         1 <0>         0.0600 
     45 H13        55.5129   20.6376   39.3508 H         1 <0>         0.0600 
     46 H14        53.7260   21.3261   37.5138 H         1 <0>         0.0600 
     47 H15        52.8685   22.8321   37.6987 H         1 <0>         0.0600 
     48 H16        60.6155   22.4685   35.3711 H         1 <0>         0.0600 
     49 H17        59.7223   24.0473   35.5638 H         1 <0>         0.0600 
     50 H18        59.5853   23.6462   38.0752 H         1 <0>         0.0600 
     51 H19        60.5115   22.1024   37.8304 H         1 <0>         0.0600 
     52 H20        56.6713   23.4622   39.2421 H         1 <0>         0.0600 
     53 H21        57.5438   21.9612   39.0459 H         1 <0>         0.0600 
     54 H22        54.9518   24.1177   37.4029 H         1 <0>         0.0600 
     55 H23        54.7261   23.0078   36.0709 H         1 <0>         0.0600 
     56 H24        56.9822   23.1053   35.5436 H         1 <0>         0.0600 
     57 H25        57.5044   24.0548   36.9076 H         1 <0>         0.0600 
     58 H26        53.9524   19.9426   40.9819 H         1 <0>         0.0600 
     59 H27        54.2225   23.3422   39.7445 H         1 <0>         0.0600 
     60 H28        59.7125   19.1385   36.0640 H         1 <0>         0.3800 
     61 H29        60.6046   20.6487   36.0639 H         1 <0>         0.3800 
     62 H30        56.2134   21.4747   37.1337 H         1 <0>         0.2900 
     63 H31        53.9371   28.3912   40.3687 H         1 <0>         0.4286 
@<TRIPOS>BOND
     1    1   22 1    
     2    1   33 1    
     3    1   34 1    
     4    1   35 1    
     5    2    4 ar   
     6    2   15 ar   
     7    2   36 1    
     8    3    5 ar   
     9    3   15 ar   
    10    3   37 1    
    11    4   16 ar   
    12    4   38 1    
    13    5   16 ar   
    14    5   39 1    
    15    6    7 1    
    16    6   17 1    
    17    6   40 1    
    18    6   41 1    
    19    7   17 1    
    20    7   42 1    
    21    7   43 1    
    22    8   12 1    
    23    8   18 1    
    24    8   44 1    
    25    8   45 1    
    26    9   13 1    
    27    9   18 1    
    28    9   46 1    
    29    9   47 1    
    30   10   11 1    
    31   10   21 1    
    32   10   48 1    
    33   10   49 1    
    34   11   21 1    
    35   11   50 1    
    36   11   51 1    
    37   12   25 1    
    38   12   52 1    
    39   12   53 1    
    40   13   25 1    
    41   13   54 1    
    42   13   55 1    
    43   14   21 1    
    44   14   25 1    
    45   14   56 1    
    46   14   57 1    
    47   15   19 1    
    48   16   22 1    
    49   17   26 1    
    50   17   58 1    
    51   18   26 1    
    52   18   59 1    
    53   19   26 am   BACKBONE|DICT|INTERRES
    54   19   28 2    
    55   20   21 1    
    56   20   24 am   BACKBONE|DICT|INTERRES
    57   20   29 2    
    58   22   23 1    
    59   22   27 1    
    60   23   30 1    
    61   23   31 1    
    62   23   32 1    
    63   24   60 1    
    64   24   61 1    
    65   25   62 1    
    66   27   63 1    
@<TRIPOS>SUBSTRUCTURE
     1 <0>         1 GROUP             0       ****    0 ROOT    
@<TRIPOS>MOLECULE
A49_2_3FRJ
63   66    1
SMALL
USER_CHARGES


@<TRIPOS>ATOM
      1 C1         51.6688   28.8931   39.3130 C.3       1 <0>        -0.1800 
      2 C2         51.3776   24.5598   39.7061 C.ar      1 <0>        -0.1150 
      3 C3         52.8177   24.6433   41.6743 C.ar      1 <0>        -0.1150 
      4 C4         51.3510   25.9683   39.6661 C.ar      1 <0>        -0.1150 
      5 C5         52.7982   26.0462   41.6247 C.ar      1 <0>        -0.1150 
      6 C6         51.9315   19.3150   40.5198 C.3       1 <0>        -0.1200 
      7 C7         52.7389   19.3170   39.2524 C.3       1 <0>        -0.1200 
      8 C8         55.5393   21.6492   39.6827 C.3       1 <0>        -0.1200 
      9 C9         53.8435   22.3079   37.9449 C.3       1 <0>        -0.1200 
     10 C10        59.8811   23.0095   35.8818 C.3       1 <0>        -0.1200 
     11 C11        59.8330   22.8471   37.3704 C.3       1 <0>        -0.1200 
     12 C12        56.6161   22.4071   38.8815 C.3       1 <0>         0.1500 
     13 C13        54.9538   23.0234   37.1632 C.3       1 <0>         0.1500 
     14 C14        57.3445   23.0205   36.5715 C.3       1 <0>         0.1500 
     15 C15        52.1031   23.8946   40.7152 C.ar      1 <0>        -0.1150 
     16 C16        52.0557   26.7270   40.6315 C.ar      1 <0>        -0.1150 
     17 C17        53.1389   20.2324   40.3955 C.3       1 <0>        -0.0149 
     18 C18        54.1508   22.2853   39.4536 C.3       1 <0>         0.0100 
     19 C19        52.0607   22.4045   40.8278 C.2       1 <0>         0.6150 
     20 C20        58.6311   20.7894   36.4268 C.2       1 <0>         0.5000 
     21 C21        58.7006   22.2960   36.5403 C.3       1 <0>         0.0000 
     22 C22        51.9939   28.2574   40.6739 C.3       1 <0>         0.3800 
     23 C23        50.9594   28.7161   41.7421 C.3       1 <0>         0.6171 
     24 N1         59.7682   20.1398   36.1718 N.am      1 <0>        -0.7600 
     25 N2         56.2862   22.4193   37.4291 N.4       1 <0>        -0.1000 
     26 N3         53.0320   21.6659   40.2173 N.am      1 <0>        -0.1151 
     27 O1         53.2738   28.7877   40.9702 O.3       1 <0>        -0.6936 
     28 O2         51.1462   21.9308   41.4997 O.2       1 <0>        -0.5000 
     29 O3         57.5871   20.1605   36.5704 O.2       1 <0>        -0.5000 
     30 F1         50.9238   30.0442   41.8527 F         1 <0>        -0.2057 
     31 F2         51.2256   28.1858   42.9368 F         1 <0>        -0.2057 
     32 F3         49.7399   28.3116   41.3799 F         1 <0>        -0.2057 
     33 H1         50.6633   28.6505   38.9713 H         1 <0>         0.0600 
     34 H2         51.7275   29.9812   39.3597 H         1 <0>         0.0600 
     35 H3         52.3777   28.5597   38.5575 H         1 <0>         0.0600 
     36 H4         50.8169   23.9919   38.9758 H         1 <0>         0.1150 
     37 H5         53.3624   24.1446   42.4661 H         1 <0>         0.1150 
     38 H6         50.7628   26.4447   38.8967 H         1 <0>         0.1150 
     39 H7         53.3296   26.6048   42.3842 H         1 <0>         0.1150 
     40 H8         52.0211   18.4435   41.1630 H         1 <0>         0.0600 
     41 H9         50.9237   19.7124   40.4343 H         1 <0>         0.0600 
     42 H10        52.2504   19.7458   38.3803 H         1 <0>         0.0600 
     43 H11        53.3571   18.4446   39.0570 H         1 <0>         0.0600 
     44 H12        55.7931   21.6693   40.7432 H         1 <0>         0.0600 
     45 H13        55.5452   20.6030   39.3759 H         1 <0>         0.0600 
     46 H14        53.7406   21.2923   37.5616 H         1 <0>         0.0600 
     47 H15        52.8890   22.7998   37.7596 H         1 <0>         0.0600 
     48 H16        60.6536   22.4440   35.3706 H         1 <0>         0.0600 
     49 H17        59.7231   24.0092   35.4858 H         1 <0>         0.0600 
     50 H18        59.6159   23.7189   37.9800 H         1 <0>         0.0600 
     51 H19        60.5211   22.1439   37.8277 H         1 <0>         0.0600 
     52 H20        56.7158   23.4284   39.2501 H         1 <0>         0.0600 
     53 H21        57.5801   21.9250   39.0403 H         1 <0>         0.0600 
     54 H22        54.9683   24.0820   37.4245 H         1 <0>         0.0600 
     55 H23        54.7274   22.9650   36.0981 H         1 <0>         0.0600 
     56 H24        56.9741   23.0921   35.5482 H         1 <0>         0.0600 
     57 H25        57.5043   24.0433   36.9019 H         1 <0>         0.0600 
     58 H26        53.9774   19.9071   41.0096 H         1 <0>         0.0600 
     59 H27        54.2864   23.3207   39.7633 H         1 <0>         0.0600 
     60 H28        59.7442   19.1345   36.0697 H         1 <0>         0.3800 
     61 H29        60.6343   20.6461   36.0642 H         1 <0>         0.3800 
     62 H30        56.2388   21.4479   37.1404 H         1 <0>         0.2900 
     63 H31        53.8773   28.4601   40.3202 H         1 <0>         0.4286 
@<TRIPOS>BOND
     1    1   22 1    
     2    1   33 1    
     3    1   34 1    
     4    1   35 1    
     5    2    4 ar   
     6    2   15 ar   
     7    2   36 1    
     8    3    5 ar   
     9    3   15 ar   
    10    3   37 1    
    11    4   16 ar   
    12    4   38 1    
    13    5   16 ar   
    14    5   39 1    
    15    6    7 1    
    16    6   17 1    
    17    6   40 1    
    18    6   41 1    
    19    7   17 1    
    20    7   42 1    
    21    7   43 1    
    22    8   12 1    
    23    8   18 1    
    24    8   44 1    
    25    8   45 1    
    26    9   13 1    
    27    9   18 1    
    28    9   46 1    
    29    9   47 1    
    30   10   11 1    
    31   10   21 1    
    32   10   48 1    
    33   10   49 1    
    34   11   21 1    
    35   11   50 1    
    36   11   51 1    
    37   12   25 1    
    38   12   52 1    
    39   12   53 1    
    40   13   25 1    
    41   13   54 1    
    42   13   55 1    
    43   14   21 1    
    44   14   25 1    
    45   14   56 1    
    46   14   57 1    
    47   15   19 1    
    48   16   22 1    
    49   17   26 1    
    50   17   58 1    
    51   18   26 1    
    52   18   59 1    
    53   19   26 am   BACKBONE|DICT|INTERRES
    54   19   28 2    
    55   20   21 1    
    56   20   24 am   BACKBONE|DICT|INTERRES
    57   20   29 2    
    58   22   23 1    
    59   22   27 1    
    60   23   30 1    
    61   23   31 1    
    62   23   32 1    
    63   24   60 1    
    64   24   61 1    
    65   25   62 1    
    66   27   63 1    
@<TRIPOS>SUBSTRUCTURE
     1 <0>         1 GROUP             0       ****    0 ROOT    
@<TRIPOS>MOLECULE
A49_2_3FRJ
63   66    1
SMALL
USER_CHARGES


@<TRIPOS>ATOM
      1 C1         51.6353   28.8964   39.3359 C.3       1 <0>        -0.1800 
      2 C2         51.2498   24.5745   39.8590 C.ar      1 <0>        -0.1150 
      3 C3         52.9741   24.6646   41.5792 C.ar      1 <0>        -0.1150 
      4 C4         51.2223   25.9815   39.8135 C.ar      1 <0>        -0.1150 
      5 C5         52.9483   26.0692   41.5299 C.ar      1 <0>        -0.1150 
      6 C6         51.9277   19.3265   40.5693 C.3       1 <0>        -0.1200 
      7 C7         52.7199   19.3266   39.2930 C.3       1 <0>        -0.1200 
      8 C8         55.5455   21.6437   39.6956 C.3       1 <0>        -0.1200 
      9 C9         53.8358   22.2937   37.9682 C.3       1 <0>        -0.1200 
     10 C10        59.8715   23.0151   35.8805 C.3       1 <0>        -0.1200 
     11 C11        59.8229   22.8756   37.3706 C.3       1 <0>        -0.1200 
     12 C12        56.6174   22.3997   38.8870 C.3       1 <0>         0.1500 
     13 C13        54.9417   23.0088   37.1774 C.3       1 <0>         0.1500 
     14 C14        57.3292   23.0125   36.5719 C.3       1 <0>         0.1500 
     15 C15        52.1226   23.9125   40.7448 C.ar      1 <0>        -0.1150 
     16 C16        52.0662   26.7449   40.6550 C.ar      1 <0>        -0.1150 
     17 C17        53.1412   20.2351   40.4329 C.3       1 <0>        -0.0149 
     18 C18        54.1552   22.2781   39.4739 C.3       1 <0>         0.0100 
     19 C19        52.0786   22.4204   40.8684 C.2       1 <0>         0.6150 
     20 C20        58.6353   20.7933   36.4418 C.2       1 <0>         0.5000 
     21 C21        58.6937   22.3024   36.5478 C.3       1 <0>         0.0000 
     22 C22        51.9904   28.2752   40.6972 C.3       1 <0>         0.3800 
     23 C23        50.9718   28.7168   41.7862 C.3       1 <0>         0.6171 
     24 N1         59.7820   20.1474   36.2162 N.am      1 <0>        -0.7600 
     25 N2         56.2785   22.4106   37.4369 N.4       1 <0>        -0.1000 
     26 N3         53.0435   21.6717   40.2575 N.am      1 <0>        -0.1151 
     27 O1         53.2674   28.8284   40.9704 O.3       1 <0>        -0.6936 
     28 O2         51.1631   21.9564   41.5445 O.2       1 <0>        -0.5000 
     29 O3         57.5929   20.1590   36.5704 O.2       1 <0>        -0.5000 
     30 F1         50.9236   30.0437   41.9086 F         1 <0>        -0.2057 
     31 F2         51.2704   28.1756   42.9682 F         1 <0>        -0.2057 
     32 F3         49.7496   28.3029   41.4460 F         1 <0>        -0.2057 
     33 H1         50.6289   28.6446   39.0044 H         1 <0>         0.0600 
     34 H2         51.6845   29.9854   39.3747 H         1 <0>         0.0600 
     35 H3         52.3336   28.5628   38.5703 H         1 <0>         0.0600 
     36 H4         50.5778   24.0061   39.2314 H         1 <0>         0.1150 
     37 H5         53.6297   24.1680   42.2800 H         1 <0>         0.1150 
     38 H6         50.5200   26.4562   39.1469 H         1 <0>         0.1150 
     39 H7         53.5837   26.6261   42.2037 H         1 <0>         0.1150 
     40 H8         52.0145   18.4438   41.1982 H         1 <0>         0.0600 
     41 H9         50.9232   19.7323   40.4948 H         1 <0>         0.0600 
     42 H10        52.2257   19.7617   38.4265 H         1 <0>         0.0600 
     43 H11        53.3249   18.4466   39.0878 H         1 <0>         0.0600 
     44 H12        55.8056   21.6624   40.7550 H         1 <0>         0.0600 
     45 H13        55.5491   20.5972   39.3885 H         1 <0>         0.0600 
     46 H14        53.7333   21.2777   37.5867 H         1 <0>         0.0600 
     47 H15        52.8807   22.7889   37.7882 H         1 <0>         0.0600 
     48 H16        60.6409   22.4434   35.3705 H         1 <0>         0.0600 
     49 H17        59.7212   24.0132   35.4770 H         1 <0>         0.0600 
     50 H18        59.5979   23.7574   37.9621 H         1 <0>         0.0600 
     51 H19        60.5235   22.1895   37.8363 H         1 <0>         0.0600 
     52 H20        56.7196   23.4215   39.2550 H         1 <0>         0.0600 
     53 H21        57.5824   21.9166   39.0437 H         1 <0>         0.0600 
     54 H22        54.9547   24.0686   37.4330 H         1 <0>         0.0600 
     55 H23        54.7112   22.9464   36.1135 H         1 <0>         0.0600 
     56 H24        56.9567   23.0611   35.5484 H         1 <0>         0.0600 
     57 H25        57.4798   24.0434   36.8851 H         1 <0>         0.0600 
     58 H26        53.9865   19.9026   41.0330 H         1 <0>         0.0600 
     59 H27        54.3009   23.3148   39.7683 H         1 <0>         0.0600 
     60 H28        59.7653   19.1416   36.1188 H         1 <0>         0.3800 
     61 H29        60.6454   20.6597   36.1204 H         1 <0>         0.3800 
     62 H30        56.2322   21.4392   37.1484 H         1 <0>         0.2900 
     63 H31        53.8501   28.5563   40.2790 H         1 <0>         0.4286 
@<TRIPOS>BOND
     1    1   22 1    
     2    1   33 1    
     3    1   34 1    
     4    1   35 1    
     5    2    4 ar   
     6    2   15 ar   
     7    2   36 1    
     8    3    5 ar   
     9    3   15 ar   
    10    3   37 1    
    11    4   16 ar   
    12    4   38 1    
    13    5   16 ar   
    14    5   39 1    
    15    6    7 1    
    16    6   17 1    
    17    6   40 1    
    18    6   41 1    
    19    7   17 1    
    20    7   42 1    
    21    7   43 1    
    22    8   12 1    
    23    8   18 1    
    24    8   44 1    
    25    8   45 1    
    26    9   13 1    
    27    9   18 1    
    28    9   46 1    
    29    9   47 1    
    30   10   11 1    
    31   10   21 1    
    32   10   48 1    
    33   10   49 1    
    34   11   21 1    
    35   11   50 1    
    36   11   51 1    
    37   12   25 1    
    38   12   52 1    
    39   12   53 1    
    40   13   25 1    
    41   13   54 1    
    42   13   55 1    
    43   14   21 1    
    44   14   25 1    
    45   14   56 1    
    46   14   57 1    
    47   15   19 1    
    48   16   22 1    
    49   17   26 1    
    50   17   58 1    
    51   18   26 1    
    52   18   59 1    
    53   19   26 am   BACKBONE|DICT|INTERRES
    54   19   28 2    
    55   20   21 1    
    56   20   24 am   BACKBONE|DICT|INTERRES
    57   20   29 2    
    58   22   23 1    
    59   22   27 1    
    60   23   30 1    
    61   23   31 1    
    62   23   32 1    
    63   24   60 1    
    64   24   61 1    
    65   25   62 1    
    66   27   63 1    
@<TRIPOS>SUBSTRUCTURE
     1 <0>         1 GROUP             0       ****    0 ROOT    
@<TRIPOS>MOLECULE
A49_2_3FRJ
63   66    1
SMALL
USER_CHARGES


@<TRIPOS>ATOM
      1 C1         51.9077   28.8489   39.2004 C.3       1 <0>        -0.1800 
      2 C2         51.5450   24.5459   39.5414 C.ar      1 <0>        -0.1150 
      3 C3         52.6816   24.5994   41.6980 C.ar      1 <0>        -0.1150 
      4 C4         51.5571   25.9532   39.5002 C.ar      1 <0>        -0.1150 
      5 C5         52.7054   26.0030   41.6515 C.ar      1 <0>        -0.1150 
      6 C6         51.9256   19.2988   40.3619 C.3       1 <0>        -0.1200 
      7 C7         52.7217   19.3126   39.0887 C.3       1 <0>        -0.1200 
      8 C8         55.5209   21.6463   39.6039 C.3       1 <0>        -0.1200 
      9 C9         53.8563   22.3084   37.8361 C.3       1 <0>        -0.1200 
     10 C10        59.9067   23.0150   35.8825 C.3       1 <0>        -0.1200 
     11 C11        59.8515   22.8599   37.3711 C.3       1 <0>        -0.1200 
     12 C12        56.6105   22.4113   38.8352 C.3       1 <0>         0.1500 
     13 C13        54.9767   23.0416   37.0912 C.3       1 <0>         0.1500 
     14 C14        57.3745   23.0380   36.5548 C.3       1 <0>         0.1500 
     15 C15        52.1001   23.8652   40.6438 C.ar      1 <0>        -0.1150 
     16 C16        52.1289   26.6969   40.5614 C.ar      1 <0>        -0.1150 
     17 C17        53.1254   20.2129   40.2398 C.3       1 <0>        -0.0149 
     18 C18        54.1359   22.2781   39.3516 C.3       1 <0>         0.0100 
     19 C19        52.0441   22.3723   40.7222 C.2       1 <0>         0.6150 
     20 C20        58.6489   20.7993   36.4215 C.2       1 <0>         0.5000 
     21 C21        58.7236   22.3065   36.5367 C.3       1 <0>         0.0000 
     22 C22        52.1062   28.2270   40.5870 C.3       1 <0>         0.3800 
     23 C23        50.9946   28.7191   41.5633 C.3       1 <0>         0.6171 
     24 N1         59.7853   20.1460   36.1714 N.am      1 <0>        -0.7600 
     25 N2         56.3016   22.4332   37.3796 N.4       1 <0>        -0.1000 
     26 N3         53.0093   21.6463   40.0861 N.am      1 <0>        -0.1151 
     27 O1         53.3756   28.7298   40.9696 O.3       1 <0>        -0.6936 
     28 O2         51.1314   21.8831   41.3816 O.2       1 <0>        -0.5000 
     29 O3         57.6051   20.1700   36.5665 O.2       1 <0>        -0.5000 
     30 F1         50.9240   30.0479   41.6125 F         1 <0>        -0.2057 
     31 F2         51.1802   28.2482   42.7974 F         1 <0>        -0.2057 
     32 F3         49.8099   28.2719   41.1350 F         1 <0>        -0.2057 
     33 H1         50.9233   28.6368   38.7941 H         1 <0>         0.0600 
     34 H2         52.0045   29.9360   39.2276 H         1 <0>         0.0600 
     35 H3         52.6542   28.4664   38.5066 H         1 <0>         0.0600 
     36 H4         51.0836   23.9910   38.7361 H         1 <0>         0.1150 
     37 H5         53.0958   24.0872   42.5565 H         1 <0>         0.1150 
     38 H6         51.1002   26.4369   38.6538 H         1 <0>         0.1150 
     39 H7         53.1376   26.5504   42.4770 H         1 <0>         0.1150 
     40 H8         52.0304   18.4452   41.0228 H         1 <0>         0.0600 
     41 H9         50.9190   19.6958   40.2905 H         1 <0>         0.0600 
     42 H10        52.2364   19.7562   38.2221 H         1 <0>         0.0600 
     43 H11        53.3364   18.4436   38.8763 H         1 <0>         0.0600 
     44 H12        55.7509   21.6547   40.6706 H         1 <0>         0.0600 
     45 H13        55.5412   20.6044   39.2853 H         1 <0>         0.0600 
     46 H14        53.7739   21.2964   37.4432 H         1 <0>         0.0600 
     47 H15        52.9035   22.7923   37.6284 H         1 <0>         0.0600 
     48 H16        60.6747   22.4441   35.3712 H         1 <0>         0.0600 
     49 H17        59.7336   24.0068   35.4703 H         1 <0>         0.0600 
     50 H18        59.6421   23.7378   37.9716 H         1 <0>         0.0600 
     51 H19        60.5196   22.1487   37.8417 H         1 <0>         0.0600 
     52 H20        56.7020   23.4293   39.2185 H         1 <0>         0.0600 
     53 H21        57.5705   21.9251   39.0091 H         1 <0>         0.0600 
     54 H22        54.9822   24.0957   37.3665 H         1 <0>         0.0600 
     55 H23        54.7762   23.0002   36.0203 H         1 <0>         0.0600 
     56 H24        57.0240   23.1344   35.5278 H         1 <0>         0.0600 
     57 H25        57.5378   24.0503   36.9132 H         1 <0>         0.0600 
     58 H26        53.9608   19.8829   40.8531 H         1 <0>         0.0600 
     59 H27        54.2631   23.3133   39.6693 H         1 <0>         0.0600 
     60 H28        59.7571   19.1399   36.0674 H         1 <0>         0.3800 
     61 H29        60.6522   20.6465   36.0564 H         1 <0>         0.3800 
     62 H30        56.2612   21.4647   37.0822 H         1 <0>         0.2900 
     63 H31        54.0235   28.3166   40.4159 H         1 <0>         0.4286 
@<TRIPOS>BOND
     1    1   22 1    
     2    1   33 1    
     3    1   34 1    
     4    1   35 1    
     5    2    4 ar   
     6    2   15 ar   
     7    2   36 1    
     8    3    5 ar   
     9    3   15 ar   
    10    3   37 1    
    11    4   16 ar   
    12    4   38 1    
    13    5   16 ar   
    14    5   39 1    
    15    6    7 1    
    16    6   17 1    
    17    6   40 1    
    18    6   41 1    
    19    7   17 1    
    20    7   42 1    
    21    7   43 1    
    22    8   12 1    
    23    8   18 1    
    24    8   44 1    
    25    8   45 1    
    26    9   13 1    
    27    9   18 1    
    28    9   46 1    
    29    9   47 1    
    30   10   11 1    
    31   10   21 1    
    32   10   48 1    
    33   10   49 1    
    34   11   21 1    
    35   11   50 1    
    36   11   51 1    
    37   12   25 1    
    38   12   52 1    
    39   12   53 1    
    40   13   25 1    
    41   13   54 1    
    42   13   55 1    
    43   14   21 1    
    44   14   25 1    
    45   14   56 1    
    46   14   57 1    
    47   15   19 1    
    48   16   22 1    
    49   17   26 1    
    50   17   58 1    
    51   18   26 1    
    52   18   59 1    
    53   19   26 am   BACKBONE|DICT|INTERRES
    54   19   28 2    
    55   20   21 1    
    56   20   24 am   BACKBONE|DICT|INTERRES
    57   20   29 2    
    58   22   23 1    
    59   22   27 1    
    60   23   30 1    
    61   23   31 1    
    62   23   32 1    
    63   24   60 1    
    64   24   61 1    
    65   25   62 1    
    66   27   63 1    
@<TRIPOS>SUBSTRUCTURE
     1 <0>         1 GROUP             0       ****    0 ROOT    
@<TRIPOS>MOLECULE
A49_2_3FRJ
63   66    1
SMALL
USER_CHARGES


@<TRIPOS>ATOM
      1 C1         51.7160   28.8664   39.3209 C.3       1 <0>        -0.1800 
      2 C2         51.3350   24.5485   39.6944 C.ar      1 <0>        -0.1150 
      3 C3         52.8083   24.5858   41.6391 C.ar      1 <0>        -0.1150 
      4 C4         51.3353   25.9564   39.6673 C.ar      1 <0>        -0.1150 
      5 C5         52.8079   25.9902   41.6101 C.ar      1 <0>        -0.1150 
      6 C6         51.9264   19.2984   40.3600 C.3       1 <0>        -0.1200 
      7 C7         52.7947   19.3096   39.1332 C.3       1 <0>        -0.1200 
      8 C8         55.5180   21.6441   39.6350 C.3       1 <0>        -0.1200 
      9 C9         53.8379   22.3568   37.8960 C.3       1 <0>        -0.1200 
     10 C10        59.8894   23.0084   35.8832 C.3       1 <0>        -0.1200 
     11 C11        59.8418   22.8456   37.3706 C.3       1 <0>        -0.1200 
     12 C12        56.6055   22.4063   38.8607 C.3       1 <0>         0.1500 
     13 C13        54.9648   23.0688   37.1366 C.3       1 <0>         0.1500 
     14 C14        57.3572   23.0350   36.5703 C.3       1 <0>         0.1500 
     15 C15        52.0683   23.8597   40.6819 C.ar      1 <0>        -0.1150 
     16 C16        52.0666   26.6938   40.6305 C.ar      1 <0>        -0.1150 
     17 C17        53.1308   20.2185   40.2994 C.3       1 <0>        -0.0149 
     18 C18        54.1347   22.2925   39.4063 C.3       1 <0>         0.0100 
     19 C19        52.0229   22.3663   40.7502 C.2       1 <0>         0.6150 
     20 C20        58.6265   20.7925   36.4256 C.2       1 <0>         0.5000 
     21 C21        58.7064   22.2994   36.5415 C.3       1 <0>         0.0000 
     22 C22        52.0400   28.2256   40.6801 C.3       1 <0>         0.3800 
     23 C23        51.0227   28.6996   41.7591 C.3       1 <0>         0.6171 
     24 N1         59.7605   20.1360   36.1712 N.am      1 <0>        -0.7600 
     25 N2         56.2848   22.4393   37.4077 N.4       1 <0>        -0.1000 
     26 N3         53.0105   21.6519   40.1399 N.am      1 <0>        -0.1151 
     27 O1         53.3357   28.7270   40.9703 O.3       1 <0>        -0.6936 
     28 O2         51.0958   21.8666   41.3835 O.2       1 <0>        -0.5000 
     29 O3         57.5789   20.1692   36.5702 O.2       1 <0>        -0.5000 
     30 F1         50.9887   30.0295   41.8566 F         1 <0>        -0.2057 
     31 F2         51.3046   28.1803   42.9538 F         1 <0>        -0.2057 
     32 F3         49.7986   28.2922   41.4197 F         1 <0>        -0.2057 
     33 H1         50.7022   28.6502   38.9845 H         1 <0>         0.0600 
     34 H2         51.8014   29.9528   39.3651 H         1 <0>         0.0600 
     35 H3         52.4087   28.5138   38.5603 H         1 <0>         0.0600 
     36 H4         50.7538   23.9999   38.9655 H         1 <0>         0.1150 
     37 H5         53.3593   24.0684   42.4122 H         1 <0>         0.1150 
     38 H6         50.7438   26.4514   38.9120 H         1 <0>         0.1150 
     39 H7         53.3599   26.5307   42.3685 H         1 <0>         0.1150 
     40 H8         51.9918   18.4441   41.0244 H         1 <0>         0.0600 
     41 H9         50.9237   19.6929   40.2235 H         1 <0>         0.0600 
     42 H10        52.3435   19.7340   38.2395 H         1 <0>         0.0600 
     43 H11        53.4282   18.4444   38.9623 H         1 <0>         0.0600 
     44 H12        55.7616   21.6372   40.6984 H         1 <0>         0.0600 
     45 H13        55.5220   20.6044   39.3036 H         1 <0>         0.0600 
     46 H14        53.7221   21.3537   37.4864 H         1 <0>         0.0600 
     47 H15        52.8943   22.8735   37.7138 H         1 <0>         0.0600 
     48 H16        60.6613   22.4437   35.3700 H         1 <0>         0.0600 
     49 H17        59.7251   24.0068   35.4831 H         1 <0>         0.0600 
     50 H18        59.6265   23.7161   37.9822 H         1 <0>         0.0600 
     51 H19        60.5233   22.1381   37.8286 H         1 <0>         0.0600 
     52 H20        56.7102   23.4217   39.2461 H         1 <0>         0.0600 
     53 H21        57.5644   21.9118   39.0236 H         1 <0>         0.0600 
     54 H22        54.9880   24.1232   37.4108 H         1 <0>         0.0600 
     55 H23        54.7499   23.0298   36.0687 H         1 <0>         0.0600 
     56 H24        56.9990   23.1273   35.5445 H         1 <0>         0.0600 
     57 H25        57.5292   24.0489   36.9209 H         1 <0>         0.0600 
     58 H26        53.9419   19.8972   40.9510 H         1 <0>         0.0600 
     59 H27        54.2706   23.3191   39.7438 H         1 <0>         0.0600 
     60 H28        59.7316   19.1305   36.0684 H         1 <0>         0.3800 
     61 H29        60.6275   20.6393   36.0674 H         1 <0>         0.3800 
     62 H30        56.2250   21.4731   37.1054 H         1 <0>         0.2900 
     63 H31        53.9247   28.3949   40.3097 H         1 <0>         0.4286 
@<TRIPOS>BOND
     1    1   22 1    
     2    1   33 1    
     3    1   34 1    
     4    1   35 1    
     5    2    4 ar   
     6    2   15 ar   
     7    2   36 1    
     8    3    5 ar   
     9    3   15 ar   
    10    3   37 1    
    11    4   16 ar   
    12    4   38 1    
    13    5   16 ar   
    14    5   39 1    
    15    6    7 1    
    16    6   17 1    
    17    6   40 1    
    18    6   41 1    
    19    7   17 1    
    20    7   42 1    
    21    7   43 1    
    22    8   12 1    
    23    8   18 1    
    24    8   44 1    
    25    8   45 1    
    26    9   13 1    
    27    9   18 1    
    28    9   46 1    
    29    9   47 1    
    30   10   11 1    
    31   10   21 1    
    32   10   48 1    
    33   10   49 1    
    34   11   21 1    
    35   11   50 1    
    36   11   51 1    
    37   12   25 1    
    38   12   52 1    
    39   12   53 1    
    40   13   25 1    
    41   13   54 1    
    42   13   55 1    
    43   14   21 1    
    44   14   25 1    
    45   14   56 1    
    46   14   57 1    
    47   15   19 1    
    48   16   22 1    
    49   17   26 1    
    50   17   58 1    
    51   18   26 1    
    52   18   59 1    
    53   19   26 am   BACKBONE|DICT|INTERRES
    54   19   28 2    
    55   20   21 1    
    56   20   24 am   BACKBONE|DICT|INTERRES
    57   20   29 2    
    58   22   23 1    
    59   22   27 1    
    60   23   30 1    
    61   23   31 1    
    62   23   32 1    
    63   24   60 1    
    64   24   61 1    
    65   25   62 1    
    66   27   63 1    
@<TRIPOS>SUBSTRUCTURE
     1 <0>         1 GROUP             0       ****    0 ROOT    
@<TRIPOS>MOLECULE
A49_2_3FRJ
63   66    1
SMALL
USER_CHARGES


@<TRIPOS>ATOM
      1 C1         51.6012   28.9082   39.3567 C.3       1 <0>        -0.1800 
      2 C2         51.1498   24.5860   39.8235 C.ar      1 <0>        -0.1150 
      3 C3         52.8657   24.6194   41.5554 C.ar      1 <0>        -0.1150 
      4 C4         51.1532   25.9931   39.7938 C.ar      1 <0>        -0.1150 
      5 C5         52.8698   26.0241   41.5209 C.ar      1 <0>        -0.1150 
      6 C6         51.8961   19.2986   40.5694 C.3       1 <0>        -0.1200 
      7 C7         52.6958   19.3078   39.2971 C.3       1 <0>        -0.1200 
      8 C8         55.4765   21.6455   39.6995 C.3       1 <0>        -0.1200 
      9 C9         53.7758   22.3172   37.9708 C.3       1 <0>        -0.1200 
     10 C10        59.8320   23.0627   36.0236 C.3       1 <0>        -0.1200 
     11 C11        59.7240   22.8209   37.5010 C.3       1 <0>        -0.1200 
     12 C12        56.5534   22.3976   38.8944 C.3       1 <0>         0.1500 
     13 C13        54.8873   23.0304   37.1901 C.3       1 <0>         0.1500 
     14 C14        57.2708   23.0052   36.5788 C.3       1 <0>         0.1500 
     15 C15        52.0100   23.8936   40.7015 C.ar      1 <0>        -0.1150 
     16 C16        52.0085   26.7306   40.6481 C.ar      1 <0>        -0.1150 
     17 C17        53.0877   20.2333   40.4318 C.3       1 <0>        -0.0149 
     18 C18        54.0876   22.2843   39.4796 C.3       1 <0>         0.0100 
     19 C19        51.9543   22.3985   40.7867 C.2       1 <0>         0.6150 
     20 C20        58.5870   20.8011   36.4339 C.2       1 <0>         0.5000 
     21 C21        58.6357   22.3029   36.5918 C.3       1 <0>         0.0000 
     22 C22        51.9681   28.2623   40.7042 C.3       1 <0>         0.3800 
     23 C23        50.9774   28.7137   41.8126 C.3       1 <0>         0.6171 
     24 N1         59.7352   20.1734   36.1705 N.am      1 <0>        -0.7600 
     25 N2         56.2153   22.4134   37.4446 N.4       1 <0>        -0.1000 
     26 N3         52.9672   21.6660   40.2403 N.am      1 <0>        -0.1151 
     27 O1         53.2607   28.7829   40.9704 O.3       1 <0>        -0.6936 
     28 O2         50.9894   21.9162   41.3769 O.2       1 <0>        -0.5000 
     29 O3         57.5504   20.1588   36.5704 O.2       1 <0>        -0.5000 
     30 F1         50.9248   30.0426   41.9307 F         1 <0>        -0.2057 
     31 F2         51.3174   28.1768   42.9832 F         1 <0>        -0.2057 
     32 F3         49.7479   28.2913   41.5121 F         1 <0>        -0.2057 
     33 H1         50.5772   28.6889   39.0572 H         1 <0>         0.0600 
     34 H2         51.6858   29.9948   39.4041 H         1 <0>         0.0600 
     35 H3         52.2662   28.5617   38.5669 H         1 <0>         0.0600 
     36 H4         50.4744   24.0376   39.1811 H         1 <0>         0.1150 
     37 H5         53.5112   24.1007   42.2513 H         1 <0>         0.1150 
     38 H6         50.4669   26.4913   39.1257 H         1 <0>         0.1150 
     39 H7         53.5141   26.5598   42.2043 H         1 <0>         0.1150 
     40 H8         52.0064   18.4435   41.2259 H         1 <0>         0.0600 
     41 H9         50.8786   19.6654   40.4816 H         1 <0>         0.0600 
     42 H10        52.1988   19.7268   38.4248 H         1 <0>         0.0600 
     43 H11        53.3234   18.4434   39.0980 H         1 <0>         0.0600 
     44 H12        55.7373   21.6596   40.7591 H         1 <0>         0.0600 
     45 H13        55.4824   20.6002   39.3872 H         1 <0>         0.0600 
     46 H14        53.6636   21.3034   37.5817 H         1 <0>         0.0600 
     47 H15        52.8263   22.8221   37.7895 H         1 <0>         0.0600 
     48 H16        60.6130   22.5284   35.4871 H         1 <0>         0.0600 
     49 H17        59.6769   24.0835   35.6847 H         1 <0>         0.0600 
     50 H18        59.4593   23.6425   38.1629 H         1 <0>         0.0600 
     51 H19        60.4048   22.1008   37.9460 H         1 <0>         0.0600 
     52 H20        56.6630   23.4168   39.2639 H         1 <0>         0.0600 
     53 H21        57.5131   21.9094   39.0540 H         1 <0>         0.0600 
     54 H22        54.9182   24.0856   37.4611 H         1 <0>         0.0600 
     55 H23        54.6589   22.9849   36.1250 H         1 <0>         0.0600 
     56 H24        56.9123   23.0310   35.5494 H         1 <0>         0.0600 
     57 H25        57.4108   24.0433   36.8718 H         1 <0>         0.0600 
     58 H26        53.9354   19.9200   41.0409 H         1 <0>         0.0600 
     59 H27        54.2325   23.3162   39.7872 H         1 <0>         0.0600 
     60 H28        59.7257   19.1710   36.0416 H         1 <0>         0.3800 
     61 H29        60.5921   20.6972   36.0809 H         1 <0>         0.3800 
     62 H30        56.1604   21.4418   37.1544 H         1 <0>         0.2900 
     63 H31        53.8453   28.4475   40.3048 H         1 <0>         0.4286 
@<TRIPOS>BOND
     1    1   22 1    
     2    1   33 1    
     3    1   34 1    
     4    1   35 1    
     5    2    4 ar   
     6    2   15 ar   
     7    2   36 1    
     8    3    5 ar   
     9    3   15 ar   
    10    3   37 1    
    11    4   16 ar   
    12    4   38 1    
    13    5   16 ar   
    14    5   39 1    
    15    6    7 1    
    16    6   17 1    
    17    6   40 1    
    18    6   41 1    
    19    7   17 1    
    20    7   42 1    
    21    7   43 1    
    22    8   12 1    
    23    8   18 1    
    24    8   44 1    
    25    8   45 1    
    26    9   13 1    
    27    9   18 1    
    28    9   46 1    
    29    9   47 1    
    30   10   11 1    
    31   10   21 1    
    32   10   48 1    
    33   10   49 1    
    34   11   21 1    
    35   11   50 1    
    36   11   51 1    
    37   12   25 1    
    38   12   52 1    
    39   12   53 1    
    40   13   25 1    
    41   13   54 1    
    42   13   55 1    
    43   14   21 1    
    44   14   25 1    
    45   14   56 1    
    46   14   57 1    
    47   15   19 1    
    48   16   22 1    
    49   17   26 1    
    50   17   58 1    
    51   18   26 1    
    52   18   59 1    
    53   19   26 am   BACKBONE|DICT|INTERRES
    54   19   28 2    
    55   20   21 1    
    56   20   24 am   BACKBONE|DICT|INTERRES
    57   20   29 2    
    58   22   23 1    
    59   22   27 1    
    60   23   30 1    
    61   23   31 1    
    62   23   32 1    
    63   24   60 1    
    64   24   61 1    
    65   25   62 1    
    66   27   63 1    
@<TRIPOS>SUBSTRUCTURE
     1 <0>         1 GROUP             0       ****    0 ROOT    
@<TRIPOS>MOLECULE
A49_2_3FRJ
63   66    1
SMALL
USER_CHARGES


@<TRIPOS>ATOM
      1 C1         51.6339   28.9121   39.3445 C.3       1 <0>        -0.1800 
      2 C2         51.2558   24.5832   39.7695 C.ar      1 <0>        -0.1150 
      3 C3         52.8821   24.6382   41.5862 C.ar      1 <0>        -0.1150 
      4 C4         51.2451   25.9919   39.7379 C.ar      1 <0>        -0.1150 
      5 C5         52.8728   26.0427   41.5489 C.ar      1 <0>        -0.1150 
      6 C6         51.9199   19.3083   40.5703 C.3       1 <0>        -0.1200 
      7 C7         52.7077   19.3130   39.2890 C.3       1 <0>        -0.1200 
      8 C8         55.5209   21.6439   39.6940 C.3       1 <0>        -0.1200 
      9 C9         53.8187   22.2940   37.9605 C.3       1 <0>        -0.1200 
     10 C10        59.8543   23.0050   35.8940 C.3       1 <0>        -0.1200 
     11 C11        59.8107   22.8132   37.3758 C.3       1 <0>        -0.1200 
     12 C12        56.5956   22.4027   38.8907 C.3       1 <0>         0.1500 
     13 C13        54.9248   23.0161   37.1763 C.3       1 <0>         0.1500 
     14 C14        57.3164   23.0142   36.5750 C.3       1 <0>         0.1500 
     15 C15        52.0705   23.9025   40.7007 C.ar      1 <0>        -0.1150 
     16 C16        52.0462   26.7371   40.6356 C.ar      1 <0>        -0.1150 
     17 C17        53.1202   20.2339   40.4230 C.3       1 <0>        -0.0149 
     18 C18        54.1313   22.2812   39.4683 C.3       1 <0>         0.0100 
     19 C19        52.0158   22.4075   40.8029 C.2       1 <0>         0.6150 
     20 C20        58.5945   20.7795   36.4224 C.2       1 <0>         0.5000 
     21 C21        58.6713   22.2855   36.5429 C.3       1 <0>         0.0000 
     22 C22        51.9916   28.2677   40.6927 C.3       1 <0>         0.3800 
     23 C23        50.9855   28.7120   41.7912 C.3       1 <0>         0.6171 
     24 N1         59.7323   20.1243   36.1709 N.am      1 <0>        -0.7600 
     25 N2         56.2602   22.4164   37.4393 N.4       1 <0>        -0.1000 
     26 N3         53.0113   21.6684   40.2358 N.am      1 <0>        -0.1151 
     27 O1         53.2769   28.7982   40.9703 O.3       1 <0>        -0.6936 
     28 O2         51.0694   21.9344   41.4261 O.2       1 <0>        -0.5000 
     29 O3         57.5466   20.1559   36.5704 O.2       1 <0>        -0.5000 
     30 F1         50.9241   30.0405   41.8998 F         1 <0>        -0.2057 
     31 F2         51.3147   28.1860   42.9711 F         1 <0>        -0.2057 
     32 F3         49.7609   28.2815   41.4743 F         1 <0>        -0.2057 
     33 H1         50.6143   28.6889   39.0320 H         1 <0>         0.0600 
     34 H2         51.7136   29.9975   39.3874 H         1 <0>         0.0600 
     35 H3         52.3107   28.5619   38.5687 H         1 <0>         0.0600 
     36 H4         50.6173   24.0257   39.0990 H         1 <0>         0.1150 
     37 H5         53.4930   24.1292   42.3183 H         1 <0>         0.1150 
     38 H6         50.5869   26.4761   39.0329 H         1 <0>         0.1150 
     39 H7         53.4790   26.5868   42.2591 H         1 <0>         0.1150 
     40 H8         52.0307   18.4434   41.2177 H         1 <0>         0.0600 
     41 H9         50.9061   19.6854   40.4857 H         1 <0>         0.0600 
     42 H10        52.2074   19.7379   38.4197 H         1 <0>         0.0600 
     43 H11        53.3259   18.4438   39.0850 H         1 <0>         0.0600 
     44 H12        55.7776   21.6603   40.7547 H         1 <0>         0.0600 
     45 H13        55.5284   20.5983   39.3815 H         1 <0>         0.0600 
     46 H14        53.7268   21.2764   37.5820 H         1 <0>         0.0600 
     47 H15        52.8616   22.7810   37.7730 H         1 <0>         0.0600 
     48 H16        60.6204   22.4441   35.3705 H         1 <0>         0.0600 
     49 H17        59.7154   24.0177   35.5265 H         1 <0>         0.0600 
     50 H18        59.5838   23.6546   38.0195 H         1 <0>         0.0600 
     51 H19        60.5153   22.1087   37.8064 H         1 <0>         0.0600 
     52 H20        56.6957   23.4228   39.2619 H         1 <0>         0.0600 
     53 H21        57.5590   21.9179   39.0496 H         1 <0>         0.0600 
     54 H22        54.9287   24.0760   37.4351 H         1 <0>         0.0600 
     55 H23        54.6966   22.9522   36.1112 H         1 <0>         0.0600 
     56 H24        56.9409   23.0718   35.5528 H         1 <0>         0.0600 
     57 H25        57.4780   24.0437   36.8922 H         1 <0>         0.0600 
     58 H26        53.9652   19.9153   41.0318 H         1 <0>         0.0600 
     59 H27        54.2752   23.3176   39.7729 H         1 <0>         0.0600 
     60 H28        59.7071   19.1183   36.0746 H         1 <0>         0.3800 
     61 H29        60.5981   20.6268   36.0520 H         1 <0>         0.3800 
     62 H30        56.2125   21.4440   37.1512 H         1 <0>         0.2900 
     63 H31        53.8737   28.4583   40.3191 H         1 <0>         0.4286 
@<TRIPOS>BOND
     1    1   22 1    
     2    1   33 1    
     3    1   34 1    
     4    1   35 1    
     5    2    4 ar   
     6    2   15 ar   
     7    2   36 1    
     8    3    5 ar   
     9    3   15 ar   
    10    3   37 1    
    11    4   16 ar   
    12    4   38 1    
    13    5   16 ar   
    14    5   39 1    
    15    6    7 1    
    16    6   17 1    
    17    6   40 1    
    18    6   41 1    
    19    7   17 1    
    20    7   42 1    
    21    7   43 1    
    22    8   12 1    
    23    8   18 1    
    24    8   44 1    
    25    8   45 1    
    26    9   13 1    
    27    9   18 1    
    28    9   46 1    
    29    9   47 1    
    30   10   11 1    
    31   10   21 1    
    32   10   48 1    
    33   10   49 1    
    34   11   21 1    
    35   11   50 1    
    36   11   51 1    
    37   12   25 1    
    38   12   52 1    
    39   12   53 1    
    40   13   25 1    
    41   13   54 1    
    42   13   55 1    
    43   14   21 1    
    44   14   25 1    
    45   14   56 1    
    46   14   57 1    
    47   15   19 1    
    48   16   22 1    
    49   17   26 1    
    50   17   58 1    
    51   18   26 1    
    52   18   59 1    
    53   19   26 am   BACKBONE|DICT|INTERRES
    54   19   28 2    
    55   20   21 1    
    56   20   24 am   BACKBONE|DICT|INTERRES
    57   20   29 2    
    58   22   23 1    
    59   22   27 1    
    60   23   30 1    
    61   23   31 1    
    62   23   32 1    
    63   24   60 1    
    64   24   61 1    
    65   25   62 1    
    66   27   63 1    
@<TRIPOS>SUBSTRUCTURE
     1 <0>         1 GROUP             0       ****    0 ROOT    
@<TRIPOS>MOLECULE
A49_2_3FRJ
63   66    1
SMALL
USER_CHARGES


@<TRIPOS>ATOM
      1 C1         51.5886   28.9036   39.3435 C.3       1 <0>        -0.1800 
      2 C2         51.1820   24.5822   39.8307 C.ar      1 <0>        -0.1150 
      3 C3         52.8777   24.6474   41.5818 C.ar      1 <0>        -0.1150 
      4 C4         51.1680   25.9897   39.7914 C.ar      1 <0>        -0.1150 
      5 C5         52.8636   26.0524   41.5410 C.ar      1 <0>        -0.1150 
      6 C6         51.8860   19.3146   40.5704 C.3       1 <0>        -0.1200 
      7 C7         52.6979   19.3133   39.3072 C.3       1 <0>        -0.1200 
      8 C8         55.4763   21.6428   39.6984 C.3       1 <0>        -0.1200 
      9 C9         53.7717   22.3243   37.9774 C.3       1 <0>        -0.1200 
     10 C10        59.8247   23.0500   35.9952 C.3       1 <0>        -0.1200 
     11 C11        59.7244   22.8193   37.4754 C.3       1 <0>        -0.1200 
     12 C12        56.5548   22.3888   38.8906 C.3       1 <0>         0.1500 
     13 C13        54.8857   23.0316   37.1905 C.3       1 <0>         0.1500 
     14 C14        57.2677   23.0075   36.5817 C.3       1 <0>         0.1500 
     15 C15        52.0345   23.9069   40.7260 C.ar      1 <0>        -0.1150 
     16 C16        52.0030   26.7402   40.6530 C.ar      1 <0>        -0.1150 
     17 C17        53.0876   20.2402   40.4437 C.3       1 <0>        -0.0149 
     18 C18        54.0909   22.2894   39.4836 C.3       1 <0>         0.0100 
     19 C19        51.9846   22.4129   40.8318 C.2       1 <0>         0.6150 
     20 C20        58.5759   20.7954   36.4304 C.2       1 <0>         0.5000 
     21 C21        58.6296   22.2993   36.5780 C.3       1 <0>         0.0000 
     22 C22        51.9478   28.2722   40.6995 C.3       1 <0>         0.3800 
     23 C23        50.9427   28.7264   41.7951 C.3       1 <0>         0.6171 
     24 N1         59.7229   20.1638   36.1714 N.am      1 <0>        -0.7600 
     25 N2         56.2124   22.4113   37.4433 N.4       1 <0>        -0.1000 
     26 N3         52.9745   21.6733   40.2527 N.am      1 <0>        -0.1151 
     27 O1         53.2335   28.8068   40.9704 O.3       1 <0>        -0.6936 
     28 O2         51.0477   21.9412   41.4720 O.2       1 <0>        -0.5000 
     29 O3         57.5384   20.1552   36.5703 O.2       1 <0>        -0.5000 
     30 F1         50.9234   30.0541   41.9316 F         1 <0>        -0.2057 
     31 F2         51.2332   28.1673   42.9706 F         1 <0>        -0.2057 
     32 F3         49.7118   28.3400   41.4551 F         1 <0>        -0.2057 
     33 H1         50.5725   28.6708   39.0278 H         1 <0>         0.0600 
     34 H2         51.6561   29.9926   39.3834 H         1 <0>         0.0600 
     35 H3         52.2717   28.5612   38.5687 H         1 <0>         0.0600 
     36 H4         50.5196   24.0210   39.1853 H         1 <0>         0.1150 
     37 H5         53.5191   24.1416   42.2894 H         1 <0>         0.1150 
     38 H6         50.4861   26.4741   39.1107 H         1 <0>         0.1150 
     39 H7         53.4927   26.6010   42.2278 H         1 <0>         0.1150 
     40 H8         51.9754   18.4442   41.2164 H         1 <0>         0.0600 
     41 H9         50.8776   19.7042   40.4766 H         1 <0>         0.0600 
     42 H10        52.2148   19.7323   38.4269 H         1 <0>         0.0600 
     43 H11        53.3239   18.4439   39.1211 H         1 <0>         0.0600 
     44 H12        55.7392   21.6554   40.7568 H         1 <0>         0.0600 
     45 H13        55.4712   20.5978   39.3860 H         1 <0>         0.0600 
     46 H14        53.6525   21.3136   37.5874 H         1 <0>         0.0600 
     47 H15        52.8250   22.8356   37.8012 H         1 <0>         0.0600 
     48 H16        60.5972   22.5062   35.4556 H         1 <0>         0.0600 
     49 H17        59.6737   24.0680   35.6471 H         1 <0>         0.0600 
     50 H18        59.4603   23.6441   38.1317 H         1 <0>         0.0600 
     51 H19        60.4111   22.1048   37.9199 H         1 <0>         0.0600 
     52 H20        56.6736   23.4073   39.2639 H         1 <0>         0.0600 
     53 H21        57.5111   21.8882   39.0452 H         1 <0>         0.0600 
     54 H22        54.9191   24.0882   37.4582 H         1 <0>         0.0600 
     55 H23        54.6538   22.9847   36.1255 H         1 <0>         0.0600 
     56 H24        56.9095   23.0448   35.5530 H         1 <0>         0.0600 
     57 H25        57.4144   24.0432   36.8861 H         1 <0>         0.0600 
     58 H26        53.9264   19.9263   41.0625 H         1 <0>         0.0600 
     59 H27        54.2417   23.3209   39.7929 H         1 <0>         0.0600 
     60 H28        59.7139   19.1619   36.0467 H         1 <0>         0.3800 
     61 H29        60.5797   20.6872   36.0744 H         1 <0>         0.3800 
     62 H30        56.1535   21.4429   37.1472 H         1 <0>         0.2900 
     63 H31        53.8186   28.5081   40.2906 H         1 <0>         0.4286 
@<TRIPOS>BOND
     1    1   22 1    
     2    1   33 1    
     3    1   34 1    
     4    1   35 1    
     5    2    4 ar   
     6    2   15 ar   
     7    2   36 1    
     8    3    5 ar   
     9    3   15 ar   
    10    3   37 1    
    11    4   16 ar   
    12    4   38 1    
    13    5   16 ar   
    14    5   39 1    
    15    6    7 1    
    16    6   17 1    
    17    6   40 1    
    18    6   41 1    
    19    7   17 1    
    20    7   42 1    
    21    7   43 1    
    22    8   12 1    
    23    8   18 1    
    24    8   44 1    
    25    8   45 1    
    26    9   13 1    
    27    9   18 1    
    28    9   46 1    
    29    9   47 1    
    30   10   11 1    
    31   10   21 1    
    32   10   48 1    
    33   10   49 1    
    34   11   21 1    
    35   11   50 1    
    36   11   51 1    
    37   12   25 1    
    38   12   52 1    
    39   12   53 1    
    40   13   25 1    
    41   13   54 1    
    42   13   55 1    
    43   14   21 1    
    44   14   25 1    
    45   14   56 1    
    46   14   57 1    
    47   15   19 1    
    48   16   22 1    
    49   17   26 1    
    50   17   58 1    
    51   18   26 1    
    52   18   59 1    
    53   19   26 am   BACKBONE|DICT|INTERRES
    54   19   28 2    
    55   20   21 1    
    56   20   24 am   BACKBONE|DICT|INTERRES
    57   20   29 2    
    58   22   23 1    
    59   22   27 1    
    60   23   30 1    
    61   23   31 1    
    62   23   32 1    
    63   24   60 1    
    64   24   61 1    
    65   25   62 1    
    66   27   63 1    
@<TRIPOS>SUBSTRUCTURE
     1 <0>         1 GROUP             0       ****    0 ROOT    
@<TRIPOS>MOLECULE
A49_2_3FRJ
63   66    1
SMALL
USER_CHARGES


@<TRIPOS>ATOM
      1 C1         51.8843   28.8638   39.1699 C.3       1 <0>        -0.1800 
      2 C2         51.4353   24.5627   39.5936 C.ar      1 <0>        -0.1150 
      3 C3         52.6678   24.6427   41.6958 C.ar      1 <0>        -0.1150 
      4 C4         51.4338   25.9701   39.5433 C.ar      1 <0>        -0.1150 
      5 C5         52.6711   26.0457   41.6401 C.ar      1 <0>        -0.1150 
      6 C6         51.9378   19.3083   40.4756 C.3       1 <0>        -0.1200 
      7 C7         52.7378   19.3161   39.2055 C.3       1 <0>        -0.1200 
      8 C8         55.5088   21.6855   39.6563 C.3       1 <0>        -0.1200 
      9 C9         53.8266   22.3382   37.8998 C.3       1 <0>        -0.1200 
     10 C10        59.8755   23.0092   35.8842 C.3       1 <0>        -0.1200 
     11 C11        59.8319   22.8461   37.3708 C.3       1 <0>        -0.1200 
     12 C12        56.5913   22.4382   38.8635 C.3       1 <0>         0.1500 
     13 C13        54.9464   23.0531   37.1310 C.3       1 <0>         0.1500 
     14 C14        57.3416   23.0351   36.5674 C.3       1 <0>         0.1500 
     15 C15        52.0514   23.8935   40.6718 C.ar      1 <0>        -0.1150 
     16 C16        52.0509   26.7293   40.5677 C.ar      1 <0>        -0.1150 
     17 C17        53.1280   20.2424   40.3423 C.3       1 <0>        -0.0149 
     18 C18        54.1179   22.3112   39.4134 C.3       1 <0>         0.0100 
     19 C19        52.0158   22.3995   40.7684 C.2       1 <0>         0.6150 
     20 C20        58.6124   20.7944   36.4245 C.2       1 <0>         0.5000 
     21 C21        58.6911   22.3011   36.5424 C.3       1 <0>         0.0000 
     22 C22        52.0405   28.2632   40.5715 C.3       1 <0>         0.3800 
     23 C23        50.9259   28.7960   41.5194 C.3       1 <0>         0.6171 
     24 N1         59.7471   20.1385   36.1713 N.am      1 <0>        -0.7600 
     25 N2         56.2719   22.4408   37.4097 N.4       1 <0>        -0.1000 
     26 N3         52.9973   21.6749   40.1583 N.am      1 <0>        -0.1151 
     27 O1         53.3045   28.7573   40.9704 O.3       1 <0>        -0.6936 
     28 O2         51.1045   21.9092   41.4283 O.2       1 <0>        -0.5000 
     29 O3         57.5657   20.1701   36.5696 O.2       1 <0>        -0.5000 
     30 F1         50.9249   30.1264   41.5848 F         1 <0>        -0.2057 
     31 F2         51.0537   28.3015   42.7494 F         1 <0>        -0.2057 
     32 F3         49.7321   28.4234   41.0541 F         1 <0>        -0.2057 
     33 H1         50.9013   28.6800   38.7444 H         1 <0>         0.0600 
     34 H2         52.0117   29.9494   39.1855 H         1 <0>         0.0600 
     35 H3         52.6338   28.4532   38.4954 H         1 <0>         0.0600 
     36 H4         50.9444   23.9990   38.8128 H         1 <0>         0.1150 
     37 H5         53.1287   24.1470   42.5394 H         1 <0>         0.1150 
     38 H6         50.9364   26.4480   38.7134 H         1 <0>         0.1150 
     39 H7         53.1316   26.6047   42.4424 H         1 <0>         0.1150 
     40 H8         52.0446   18.4443   41.1212 H         1 <0>         0.0600 
     41 H9         50.9239   19.6869   40.3878 H         1 <0>         0.0600 
     42 H10        52.2443   19.7361   38.3317 H         1 <0>         0.0600 
     43 H11        53.3611   18.4477   39.0118 H         1 <0>         0.0600 
     44 H12        55.7519   21.7097   40.7190 H         1 <0>         0.0600 
     45 H13        55.5260   20.6389   39.3512 H         1 <0>         0.0600 
     46 H14        53.7256   21.3232   37.5160 H         1 <0>         0.0600 
     47 H15        52.8769   22.8352   37.7001 H         1 <0>         0.0600 
     48 H16        60.6442   22.4436   35.3700 H         1 <0>         0.0600 
     49 H17        59.7227   24.0145   35.4935 H         1 <0>         0.0600 
     50 H18        59.6229   23.7193   37.9804 H         1 <0>         0.0600 
     51 H19        60.5226   22.1423   37.8213 H         1 <0>         0.0600 
     52 H20        56.6860   23.4617   39.2268 H         1 <0>         0.0600 
     53 H21        57.5535   21.9559   39.0355 H         1 <0>         0.0600 
     54 H22        54.9610   24.1109   37.3945 H         1 <0>         0.0600 
     55 H23        54.7323   23.0023   36.0621 H         1 <0>         0.0600 
     56 H24        56.9839   23.1189   35.5410 H         1 <0>         0.0600 
     57 H25        57.5131   24.0486   36.9119 H         1 <0>         0.0600 
     58 H26        53.9706   19.9332   40.9554 H         1 <0>         0.0600 
     59 H27        54.2426   23.3455   39.7301 H         1 <0>         0.0600 
     60 H28        59.7222   19.1340   36.0744 H         1 <0>         0.3800 
     61 H29        60.6111   20.6449   36.0556 H         1 <0>         0.3800 
     62 H30        56.2218   21.4689   37.1219 H         1 <0>         0.2900 
     63 H31        53.9573   28.3498   40.4192 H         1 <0>         0.4286 
@<TRIPOS>BOND
     1    1   22 1    
     2    1   33 1    
     3    1   34 1    
     4    1   35 1    
     5    2    4 ar   
     6    2   15 ar   
     7    2   36 1    
     8    3    5 ar   
     9    3   15 ar   
    10    3   37 1    
    11    4   16 ar   
    12    4   38 1    
    13    5   16 ar   
    14    5   39 1    
    15    6    7 1    
    16    6   17 1    
    17    6   40 1    
    18    6   41 1    
    19    7   17 1    
    20    7   42 1    
    21    7   43 1    
    22    8   12 1    
    23    8   18 1    
    24    8   44 1    
    25    8   45 1    
    26    9   13 1    
    27    9   18 1    
    28    9   46 1    
    29    9   47 1    
    30   10   11 1    
    31   10   21 1    
    32   10   48 1    
    33   10   49 1    
    34   11   21 1    
    35   11   50 1    
    36   11   51 1    
    37   12   25 1    
    38   12   52 1    
    39   12   53 1    
    40   13   25 1    
    41   13   54 1    
    42   13   55 1    
    43   14   21 1    
    44   14   25 1    
    45   14   56 1    
    46   14   57 1    
    47   15   19 1    
    48   16   22 1    
    49   17   26 1    
    50   17   58 1    
    51   18   26 1    
    52   18   59 1    
    53   19   26 am   BACKBONE|DICT|INTERRES
    54   19   28 2    
    55   20   21 1    
    56   20   24 am   BACKBONE|DICT|INTERRES
    57   20   29 2    
    58   22   23 1    
    59   22   27 1    
    60   23   30 1    
    61   23   31 1    
    62   23   32 1    
    63   24   60 1    
    64   24   61 1    
    65   25   62 1    
    66   27   63 1    
@<TRIPOS>SUBSTRUCTURE
     1 <0>         1 GROUP             0       ****    0 ROOT    
@<TRIPOS>MOLECULE
A49_2_3FRJ
63   66    1
SMALL
USER_CHARGES


@<TRIPOS>ATOM
      1 C1         51.5863   28.9140   39.3535 C.3       1 <0>        -0.1800 
      2 C2         51.1642   24.5814   39.7803 C.ar      1 <0>        -0.1150 
      3 C3         52.8178   24.6196   41.5716 C.ar      1 <0>        -0.1150 
      4 C4         51.1603   25.9895   39.7519 C.ar      1 <0>        -0.1150 
      5 C5         52.8135   26.0254   41.5426 C.ar      1 <0>        -0.1150 
      6 C6         51.8932   19.2973   40.5584 C.3       1 <0>        -0.1200 
      7 C7         52.7006   19.3062   39.2930 C.3       1 <0>        -0.1200 
      8 C8         55.4627   21.6356   39.6866 C.3       1 <0>        -0.1200 
      9 C9         53.7662   22.3356   37.9709 C.3       1 <0>        -0.1200 
     10 C10        59.8362   23.0658   36.0321 C.3       1 <0>        -0.1200 
     11 C11        59.7233   22.8221   37.5080 C.3       1 <0>        -0.1200 
     12 C12        56.5463   22.3872   38.8897 C.3       1 <0>         0.1500 
     13 C13        54.8856   23.0404   37.1879 C.3       1 <0>         0.1500 
     14 C14        57.2700   23.0066   36.5806 C.3       1 <0>         0.1500 
     15 C15        51.9922   23.8911   40.6896 C.ar      1 <0>        -0.1150 
     16 C16        51.9800   26.7295   40.6403 C.ar      1 <0>        -0.1150 
     17 C17        53.0829   20.2351   40.4295 C.3       1 <0>        -0.0149 
     18 C18        54.0808   22.2896   39.4783 C.3       1 <0>         0.0100 
     19 C19        51.9406   22.3958   40.7759 C.2       1 <0>         0.6150 
     20 C20        58.5843   20.8044   36.4369 C.2       1 <0>         0.5000 
     21 C21        58.6352   22.3057   36.5965 C.3       1 <0>         0.0000 
     22 C22        51.9407   28.2611   40.6992 C.3       1 <0>         0.3800 
     23 C23        50.9400   28.7145   41.7992 C.3       1 <0>         0.6171 
     24 N1         59.7307   20.1742   36.1712 N.am      1 <0>        -0.7600 
     25 N2         56.2102   22.4140   37.4396 N.4       1 <0>        -0.1000 
     26 N3         52.9586   21.6666   40.2330 N.am      1 <0>        -0.1151 
     27 O1         53.2305   28.7771   40.9704 O.3       1 <0>        -0.6936 
     28 O2         50.9807   21.9119   41.3707 O.2       1 <0>        -0.5000 
     29 O3         57.5470   20.1605   36.5701 O.2       1 <0>        -0.5000 
     30 F1         50.9242   30.0424   41.9375 F         1 <0>        -0.2057 
     31 F2         51.2333   28.1519   42.9708 F         1 <0>        -0.2057 
     32 F3         49.7060   28.3317   41.4644 F         1 <0>        -0.2057 
     33 H1         50.5656   28.6968   39.0392 H         1 <0>         0.0600 
     34 H2         51.6709   30.0001   39.4111 H         1 <0>         0.0600 
     35 H3         52.2618   28.5720   38.5701 H         1 <0>         0.0600 
     36 H4         50.5139   24.0294   39.1179 H         1 <0>         0.1150 
     37 H5         53.4397   24.1049   42.2905 H         1 <0>         0.1150 
     38 H6         50.4985   26.4836   39.0577 H         1 <0>         0.1150 
     39 H7         53.4321   26.5645   42.2471 H         1 <0>         0.1150 
     40 H8         52.0037   18.4434   41.2181 H         1 <0>         0.0600 
     41 H9         50.8778   19.6624   40.4628 H         1 <0>         0.0600 
     42 H10        52.2124   19.7247   38.4153 H         1 <0>         0.0600 
     43 H11        53.3327   18.4435   39.1007 H         1 <0>         0.0600 
     44 H12        55.7241   21.6284   40.7467 H         1 <0>         0.0600 
     45 H13        55.4537   20.5966   39.3561 H         1 <0>         0.0600 
     46 H14        53.6460   21.3267   37.5763 H         1 <0>         0.0600 
     47 H15        52.8193   22.8492   37.7938 H         1 <0>         0.0600 
     48 H16        60.6155   22.5297   35.4983 H         1 <0>         0.0600 
     49 H17        59.6813   24.0850   35.6911 H         1 <0>         0.0600 
     50 H18        59.4542   23.6434   38.1693 H         1 <0>         0.0600 
     51 H19        60.4012   22.0995   37.9555 H         1 <0>         0.0600 
     52 H20        56.6593   23.4037   39.2686 H         1 <0>         0.0600 
     53 H21        57.5010   21.8854   39.0487 H         1 <0>         0.0600 
     54 H22        54.9211   24.0969   37.4586 H         1 <0>         0.0600 
     55 H23        54.6540   22.9960   36.1236 H         1 <0>         0.0600 
     56 H24        56.9170   23.0350   35.5495 H         1 <0>         0.0600 
     57 H25        57.4105   24.0434   36.8809 H         1 <0>         0.0600 
     58 H26        53.9240   19.9287   41.0501 H         1 <0>         0.0600 
     59 H27        54.2297   23.3169   39.8029 H         1 <0>         0.0600 
     60 H28        59.7198   19.1712   36.0432 H         1 <0>         0.3800 
     61 H29        60.5899   20.6942   36.0718 H         1 <0>         0.3800 
     62 H30        56.1457   21.4450   37.1447 H         1 <0>         0.2900 
     63 H31        53.8188   28.4408   40.3080 H         1 <0>         0.4286 
@<TRIPOS>BOND
     1    1   22 1    
     2    1   33 1    
     3    1   34 1    
     4    1   35 1    
     5    2    4 ar   
     6    2   15 ar   
     7    2   36 1    
     8    3    5 ar   
     9    3   15 ar   
    10    3   37 1    
    11    4   16 ar   
    12    4   38 1    
    13    5   16 ar   
    14    5   39 1    
    15    6    7 1    
    16    6   17 1    
    17    6   40 1    
    18    6   41 1    
    19    7   17 1    
    20    7   42 1    
    21    7   43 1    
    22    8   12 1    
    23    8   18 1    
    24    8   44 1    
    25    8   45 1    
    26    9   13 1    
    27    9   18 1    
    28    9   46 1    
    29    9   47 1    
    30   10   11 1    
    31   10   21 1    
    32   10   48 1    
    33   10   49 1    
    34   11   21 1    
    35   11   50 1    
    36   11   51 1    
    37   12   25 1    
    38   12   52 1    
    39   12   53 1    
    40   13   25 1    
    41   13   54 1    
    42   13   55 1    
    43   14   21 1    
    44   14   25 1    
    45   14   56 1    
    46   14   57 1    
    47   15   19 1    
    48   16   22 1    
    49   17   26 1    
    50   17   58 1    
    51   18   26 1    
    52   18   59 1    
    53   19   26 am   BACKBONE|DICT|INTERRES
    54   19   28 2    
    55   20   21 1    
    56   20   24 am   BACKBONE|DICT|INTERRES
    57   20   29 2    
    58   22   23 1    
    59   22   27 1    
    60   23   30 1    
    61   23   31 1    
    62   23   32 1    
    63   24   60 1    
    64   24   61 1    
    65   25   62 1    
    66   27   63 1    
@<TRIPOS>SUBSTRUCTURE
     1 <0>         1 GROUP             0       ****    0 ROOT    
@<TRIPOS>MOLECULE
A49_2_3FRJ
63   66    1
SMALL
USER_CHARGES


@<TRIPOS>ATOM
      1 C1         51.8998   28.8528   39.1577 C.3       1 <0>        -0.1800 
      2 C2         51.5058   24.5473   39.5390 C.ar      1 <0>        -0.1150 
      3 C3         52.6213   24.6261   41.7073 C.ar      1 <0>        -0.1150 
      4 C4         51.4941   25.9549   39.4938 C.ar      1 <0>        -0.1150 
      5 C5         52.6195   26.0314   41.6547 C.ar      1 <0>        -0.1150 
      6 C6         51.9237   19.3093   40.3524 C.3       1 <0>        -0.1200 
      7 C7         52.7717   19.3128   39.1136 C.3       1 <0>        -0.1200 
      8 C8         55.5229   21.6636   39.6332 C.3       1 <0>        -0.1200 
      9 C9         53.8599   22.3187   37.8630 C.3       1 <0>        -0.1200 
     10 C10        59.9062   23.0098   35.8809 C.3       1 <0>        -0.1200 
     11 C11        59.8543   22.8602   37.3705 C.3       1 <0>        -0.1200 
     12 C12        56.6135   22.4200   38.8547 C.3       1 <0>         0.1500 
     13 C13        54.9809   23.0412   37.1075 C.3       1 <0>         0.1500 
     14 C14        57.3745   23.0302   36.5616 C.3       1 <0>         0.1500 
     15 C15        52.0674   23.8778   40.6480 C.ar      1 <0>        -0.1150 
     16 C16        52.0527   26.7139   40.5524 C.ar      1 <0>        -0.1150 
     17 C17        53.1289   20.2263   40.2736 C.3       1 <0>        -0.0149 
     18 C18        54.1358   22.2953   39.3765 C.3       1 <0>         0.0100 
     19 C19        52.0353   22.3828   40.7384 C.2       1 <0>         0.6150 
     20 C20        58.6505   20.7948   36.4274 C.2       1 <0>         0.5000 
     21 C21        58.7258   22.3016   36.5397 C.3       1 <0>         0.0000 
     22 C22        52.0423   28.2466   40.5591 C.3       1 <0>         0.3800 
     23 C23        50.9169   28.7834   41.4926 C.3       1 <0>         0.6171 
     24 N1         59.7888   20.1409   36.1796 N.am      1 <0>        -0.7600 
     25 N2         56.3050   22.4304   37.3976 N.4       1 <0>        -0.1000 
     26 N3         53.0079   21.6604   40.1090 N.am      1 <0>        -0.1151 
     27 O1         53.3065   28.7341   40.9704 O.3       1 <0>        -0.6936 
     28 O2         51.1321   21.8855   41.4070 O.2       1 <0>        -0.5000 
     29 O3         57.6052   20.1697   36.5704 O.2       1 <0>        -0.5000 
     30 F1         50.9239   30.1137   41.5675 F         1 <0>        -0.2057 
     31 F2         51.0204   28.2825   42.7229 F         1 <0>        -0.2057 
     32 F3         49.7276   28.4300   41.0050 F         1 <0>        -0.2057 
     33 H1         50.9242   28.6628   38.7209 H         1 <0>         0.0600 
     34 H2         52.0200   29.9362   39.1832 H         1 <0>         0.0600 
     35 H3         52.6632   28.4482   38.4935 H         1 <0>         0.0600 
     36 H4         51.0640   23.9836   38.7291 H         1 <0>         0.1150 
     37 H5         53.0401   24.1294   42.5703 H         1 <0>         0.1150 
     38 H6         51.0411   26.4333   38.6388 H         1 <0>         0.1150 
     39 H7         53.0436   26.5875   42.4787 H         1 <0>         0.1150 
     40 H8         51.9936   18.4486   41.0102 H         1 <0>         0.0600 
     41 H9         50.9232   19.7126   40.2364 H         1 <0>         0.0600 
     42 H10        52.3108   19.7378   38.2247 H         1 <0>         0.0600 
     43 H11        53.3994   18.4443   38.9379 H         1 <0>         0.0600 
     44 H12        55.7550   21.6741   40.6993 H         1 <0>         0.0600 
     45 H13        55.5418   20.6190   39.3213 H         1 <0>         0.0600 
     46 H14        53.7804   21.3046   37.4734 H         1 <0>         0.0600 
     47 H15        52.9062   22.8023   37.6542 H         1 <0>         0.0600 
     48 H16        60.6805   22.4447   35.3703 H         1 <0>         0.0600 
     49 H17        59.7265   24.0006   35.4676 H         1 <0>         0.0600 
     50 H18        59.6436   23.7402   37.9686 H         1 <0>         0.0600 
     51 H19        60.5234   22.1496   37.8429 H         1 <0>         0.0600 
     52 H20        56.7062   23.4427   39.2273 H         1 <0>         0.0600 
     53 H21        57.5760   21.9377   39.0299 H         1 <0>         0.0600 
     54 H22        54.9889   24.0990   37.3707 H         1 <0>         0.0600 
     55 H23        54.7774   22.9877   36.0373 H         1 <0>         0.0600 
     56 H24        57.0195   23.1108   35.5349 H         1 <0>         0.0600 
     57 H25        57.5388   24.0491   36.9020 H         1 <0>         0.0600 
     58 H26        53.9469   19.9036   40.9155 H         1 <0>         0.0600 
     59 H27        54.2546   23.3290   39.6977 H         1 <0>         0.0600 
     60 H28        59.7642   19.1362   36.0778 H         1 <0>         0.3800 
     61 H29        60.6561   20.6463   36.0753 H         1 <0>         0.3800 
     62 H30        56.2584   21.4587   37.1077 H         1 <0>         0.2900 
     63 H31        53.9612   28.3428   40.4106 H         1 <0>         0.4286 
@<TRIPOS>BOND
     1    1   22 1    
     2    1   33 1    
     3    1   34 1    
     4    1   35 1    
     5    2    4 ar   
     6    2   15 ar   
     7    2   36 1    
     8    3    5 ar   
     9    3   15 ar   
    10    3   37 1    
    11    4   16 ar   
    12    4   38 1    
    13    5   16 ar   
    14    5   39 1    
    15    6    7 1    
    16    6   17 1    
    17    6   40 1    
    18    6   41 1    
    19    7   17 1    
    20    7   42 1    
    21    7   43 1    
    22    8   12 1    
    23    8   18 1    
    24    8   44 1    
    25    8   45 1    
    26    9   13 1    
    27    9   18 1    
    28    9   46 1    
    29    9   47 1    
    30   10   11 1    
    31   10   21 1    
    32   10   48 1    
    33   10   49 1    
    34   11   21 1    
    35   11   50 1    
    36   11   51 1    
    37   12   25 1    
    38   12   52 1    
    39   12   53 1    
    40   13   25 1    
    41   13   54 1    
    42   13   55 1    
    43   14   21 1    
    44   14   25 1    
    45   14   56 1    
    46   14   57 1    
    47   15   19 1    
    48   16   22 1    
    49   17   26 1    
    50   17   58 1    
    51   18   26 1    
    52   18   59 1    
    53   19   26 am   BACKBONE|DICT|INTERRES
    54   19   28 2    
    55   20   21 1    
    56   20   24 am   BACKBONE|DICT|INTERRES
    57   20   29 2    
    58   22   23 1    
    59   22   27 1    
    60   23   30 1    
    61   23   31 1    
    62   23   32 1    
    63   24   60 1    
    64   24   61 1    
    65   25   62 1    
    66   27   63 1    
@<TRIPOS>SUBSTRUCTURE
     1 <0>         1 GROUP             0       ****    0 ROOT    
@<TRIPOS>MOLECULE
A49_2_3FRJ
63   66    1
SMALL
USER_CHARGES


@<TRIPOS>ATOM
      1 C1         51.8990   28.8562   39.1640 C.3       1 <0>        -0.1800 
      2 C2         51.4704   24.5488   39.5522 C.ar      1 <0>        -0.1150 
      3 C3         52.6157   24.6240   41.7023 C.ar      1 <0>        -0.1150 
      4 C4         51.4640   25.9583   39.5079 C.ar      1 <0>        -0.1150 
      5 C5         52.6171   26.0290   41.6504 C.ar      1 <0>        -0.1150 
      6 C6         51.9277   19.3014   40.3810 C.3       1 <0>        -0.1200 
      7 C7         52.7794   19.3052   39.1395 C.3       1 <0>        -0.1200 
      8 C8         55.5034   21.6559   39.6348 C.3       1 <0>        -0.1200 
      9 C9         53.8379   22.3278   37.8709 C.3       1 <0>        -0.1200 
     10 C10        59.8900   23.0040   35.8889 C.3       1 <0>        -0.1200 
     11 C11        59.8475   22.8186   37.3711 C.3       1 <0>        -0.1200 
     12 C12        56.5954   22.4172   38.8612 C.3       1 <0>         0.1500 
     13 C13        54.9639   23.0433   37.1158 C.3       1 <0>         0.1500 
     14 C14        57.3612   23.0266   36.5697 C.3       1 <0>         0.1500 
     15 C15        52.0469   23.8779   40.6496 C.ar      1 <0>        -0.1150 
     16 C16        52.0389   26.7153   40.5598 C.ar      1 <0>        -0.1150 
     17 C17        53.1226   20.2307   40.2951 C.3       1 <0>        -0.0149 
     18 C18        54.1187   22.2970   39.3867 C.3       1 <0>         0.0100 
     19 C19        52.0128   22.3824   40.7351 C.2       1 <0>         0.6150 
     20 C20        58.6266   20.7817   36.4266 C.2       1 <0>         0.5000 
     21 C21        58.7077   22.2874   36.5406 C.3       1 <0>         0.0000 
     22 C22        52.0395   28.2497   40.5659 C.3       1 <0>         0.3800 
     23 C23        50.9173   28.7934   41.4997 C.3       1 <0>         0.6171 
     24 N1         59.7628   20.1222   36.1855 N.am      1 <0>        -0.7600 
     25 N2         56.2880   22.4313   37.4050 N.4       1 <0>        -0.1000 
     26 N3         52.9933   21.6615   40.1187 N.am      1 <0>        -0.1151 
     27 O1         53.3067   28.7277   40.9702 O.3       1 <0>        -0.6936 
     28 O2         51.1001   21.8853   41.3915 O.2       1 <0>        -0.5000 
     29 O3         57.5763   20.1627   36.5685 O.2       1 <0>        -0.5000 
     30 F1         50.9238   30.1248   41.5632 F         1 <0>        -0.2057 
     31 F2         51.0239   28.3030   42.7339 F         1 <0>        -0.2057 
     32 F3         49.7286   28.4288   41.0170 F         1 <0>        -0.2057 
     33 H1         50.9232   28.6668   38.7268 H         1 <0>         0.0600 
     34 H2         52.0212   29.9410   39.1848 H         1 <0>         0.0600 
     35 H3         52.6560   28.4498   38.4966 H         1 <0>         0.0600 
     36 H4         51.0151   23.9900   38.7444 H         1 <0>         0.1150 
     37 H5         53.0416   24.1277   42.5650 H         1 <0>         0.1150 
     38 H6         50.9987   26.4388   38.6617 H         1 <0>         0.1150 
     39 H7         53.0503   26.5821   42.4732 H         1 <0>         0.1150 
     40 H8         52.0083   18.4506   41.0477 H         1 <0>         0.0600 
     41 H9         50.9237   19.6964   40.2636 H         1 <0>         0.0600 
     42 H10        52.3164   19.7182   38.2470 H         1 <0>         0.0600 
     43 H11        53.4163   18.4445   38.9699 H         1 <0>         0.0600 
     44 H12        55.7368   21.6591   40.6999 H         1 <0>         0.0600 
     45 H13        55.5218   20.6140   39.3142 H         1 <0>         0.0600 
     46 H14        53.7459   21.3147   37.4756 H         1 <0>         0.0600 
     47 H15        52.8901   22.8268   37.6683 H         1 <0>         0.0600 
     48 H16        60.6609   22.4442   35.3702 H         1 <0>         0.0600 
     49 H17        59.7236   24.0067   35.4981 H         1 <0>         0.0600 
     50 H18        59.6230   23.6652   38.0107 H         1 <0>         0.0600 
     51 H19        60.5205   22.0983   37.8181 H         1 <0>         0.0600 
     52 H20        56.6889   23.4358   39.2378 H         1 <0>         0.0600 
     53 H21        57.5566   21.9338   39.0369 H         1 <0>         0.0600 
     54 H22        54.9738   24.1016   37.3783 H         1 <0>         0.0600 
     55 H23        54.7583   22.9896   36.0460 H         1 <0>         0.0600 
     56 H24        57.0024   23.1200   35.5452 H         1 <0>         0.0600 
     57 H25        57.5345   24.0407   36.9185 H         1 <0>         0.0600 
     58 H26        53.9404   19.9183   40.9439 H         1 <0>         0.0600 
     59 H27        54.2428   23.3294   39.7142 H         1 <0>         0.0600 
     60 H28        59.7272   19.1166   36.0802 H         1 <0>         0.3800 
     61 H29        60.6313   20.6225   36.0849 H         1 <0>         0.3800 
     62 H30        56.2405   21.4628   37.1112 H         1 <0>         0.2900 
     63 H31        53.9546   28.3424   40.3991 H         1 <0>         0.4286 
@<TRIPOS>BOND
     1    1   22 1    
     2    1   33 1    
     3    1   34 1    
     4    1   35 1    
     5    2    4 ar   
     6    2   15 ar   
     7    2   36 1    
     8    3    5 ar   
     9    3   15 ar   
    10    3   37 1    
    11    4   16 ar   
    12    4   38 1    
    13    5   16 ar   
    14    5   39 1    
    15    6    7 1    
    16    6   17 1    
    17    6   40 1    
    18    6   41 1    
    19    7   17 1    
    20    7   42 1    
    21    7   43 1    
    22    8   12 1    
    23    8   18 1    
    24    8   44 1    
    25    8   45 1    
    26    9   13 1    
    27    9   18 1    
    28    9   46 1    
    29    9   47 1    
    30   10   11 1    
    31   10   21 1    
    32   10   48 1    
    33   10   49 1    
    34   11   21 1    
    35   11   50 1    
    36   11   51 1    
    37   12   25 1    
    38   12   52 1    
    39   12   53 1    
    40   13   25 1    
    41   13   54 1    
    42   13   55 1    
    43   14   21 1    
    44   14   25 1    
    45   14   56 1    
    46   14   57 1    
    47   15   19 1    
    48   16   22 1    
    49   17   26 1    
    50   17   58 1    
    51   18   26 1    
    52   18   59 1    
    53   19   26 am   BACKBONE|DICT|INTERRES
    54   19   28 2    
    55   20   21 1    
    56   20   24 am   BACKBONE|DICT|INTERRES
    57   20   29 2    
    58   22   23 1    
    59   22   27 1    
    60   23   30 1    
    61   23   31 1    
    62   23   32 1    
    63   24   60 1    
    64   24   61 1    
    65   25   62 1    
    66   27   63 1    
@<TRIPOS>SUBSTRUCTURE
     1 <0>         1 GROUP             0       ****    0 ROOT    
@<TRIPOS>MOLECULE
A49_2_3FRJ
63   66    1
SMALL
USER_CHARGES


@<TRIPOS>ATOM
      1 C1         51.6417   28.8895   39.3112 C.3       1 <0>        -0.1800 
      2 C2         51.2396   24.5648   39.7311 C.ar      1 <0>        -0.1150 
      3 C3         52.8316   24.6168   41.5759 C.ar      1 <0>        -0.1150 
      4 C4         51.2241   25.9729   39.7069 C.ar      1 <0>        -0.1150 
      5 C5         52.8167   26.0227   41.5487 C.ar      1 <0>        -0.1150 
      6 C6         51.9376   19.3010   40.4849 C.3       1 <0>        -0.1200 
      7 C7         52.7401   19.3158   39.2125 C.3       1 <0>        -0.1200 
      8 C8         55.5132   21.6435   39.6472 C.3       1 <0>        -0.1200 
      9 C9         53.8218   22.3451   37.9239 C.3       1 <0>        -0.1200 
     10 C10        59.8759   23.0273   35.8793 C.3       1 <0>        -0.1200 
     11 C11        59.8274   22.8997   37.3706 C.3       1 <0>        -0.1200 
     12 C12        56.5961   22.4096   38.8664 C.3       1 <0>         0.1500 
     13 C13        54.9423   23.0560   37.1497 C.3       1 <0>         0.1500 
     14 C14        57.3359   23.0405   36.5704 C.3       1 <0>         0.1500 
     15 C15        52.0437   23.8832   40.6674 C.ar      1 <0>        -0.1150 
     16 C16        52.0096   26.7196   40.6201 C.ar      1 <0>        -0.1150 
     17 C17        53.1303   20.2320   40.3556 C.3       1 <0>        -0.0149 
     18 C18        54.1282   22.2951   39.4326 C.3       1 <0>         0.0100 
     19 C19        52.0009   22.3885   40.7541 C.2       1 <0>         0.6150 
     20 C20        58.6340   20.8124   36.4540 C.2       1 <0>         0.5000 
     21 C21        58.6960   22.3223   36.5518 C.3       1 <0>         0.0000 
     22 C22        51.9651   28.2505   40.6721 C.3       1 <0>         0.3800 
     23 C23        50.9455   28.7157   41.7502 C.3       1 <0>         0.6171 
     24 N1         59.7821   20.1624   36.2509 N.am      1 <0>        -0.7600 
     25 N2         56.2704   22.4407   37.4158 N.4       1 <0>        -0.1000 
     26 N3         53.0062   21.6646   40.1825 N.am      1 <0>        -0.1151 
     27 O1         53.2519   28.7660   40.9704 O.3       1 <0>        -0.6936 
     28 O2         51.0599   21.8984   41.3750 O.2       1 <0>        -0.5000 
     29 O3         57.5883   20.1816   36.5703 O.2       1 <0>        -0.5000 
     30 F1         50.9236   30.0435   41.8704 F         1 <0>        -0.2057 
     31 F2         51.2182   28.1715   42.9361 F         1 <0>        -0.2057 
     32 F3         49.7194   28.3260   41.3959 F         1 <0>        -0.2057 
     33 H1         50.6311   28.6643   38.9712 H         1 <0>         0.0600 
     34 H2         51.7157   29.9770   39.3572 H         1 <0>         0.0600 
     35 H3         52.3386   28.5453   38.5490 H         1 <0>         0.0600 
     36 H4         50.6158   24.0110   39.0430 H         1 <0>         0.1150 
     37 H5         53.4333   24.1064   42.3146 H         1 <0>         0.1150 
     38 H6         50.5807   26.4626   38.9929 H         1 <0>         0.1150 
     39 H7         53.4052   26.5648   42.2747 H         1 <0>         0.1150 
     40 H8         52.0450   18.4435   41.1399 H         1 <0>         0.0600 
     41 H9         50.9234   19.6759   40.3904 H         1 <0>         0.0600 
     42 H10        52.2458   19.7460   38.3423 H         1 <0>         0.0600 
     43 H11        53.3578   18.4446   39.0128 H         1 <0>         0.0600 
     44 H12        55.7659   21.6295   40.7085 H         1 <0>         0.0600 
     45 H13        55.5132   20.6062   39.3081 H         1 <0>         0.0600 
     46 H14        53.7022   21.3367   37.5264 H         1 <0>         0.0600 
     47 H15        52.8766   22.8583   37.7457 H         1 <0>         0.0600 
     48 H16        60.6443   22.4529   35.3706 H         1 <0>         0.0600 
     49 H17        59.7236   24.0225   35.4666 H         1 <0>         0.0600 
     50 H18        59.6086   23.7917   37.9503 H         1 <0>         0.0600 
     51 H19        60.5208   22.2145   37.8447 H         1 <0>         0.0600 
     52 H20        56.6954   23.4266   39.2503 H         1 <0>         0.0600 
     53 H21        57.5578   21.9219   39.0263 H         1 <0>         0.0600 
     54 H22        54.9623   24.1134   37.4161 H         1 <0>         0.0600 
     55 H23        54.7211   23.0079   36.0837 H         1 <0>         0.0600 
     56 H24        56.9770   23.1112   35.5434 H         1 <0>         0.0600 
     57 H25        57.4945   24.0628   36.9027 H         1 <0>         0.0600 
     58 H26        53.9714   19.9148   40.9694 H         1 <0>         0.0600 
     59 H27        54.2695   23.3230   39.7605 H         1 <0>         0.0600 
     60 H28        59.7659   19.1554   36.1628 H         1 <0>         0.3800 
     61 H29        60.6478   20.6733   36.1649 H         1 <0>         0.3800 
     62 H30        56.2166   21.4732   37.1161 H         1 <0>         0.2900 
     63 H31        53.8522   28.4257   40.3233 H         1 <0>         0.4286 
@<TRIPOS>BOND
     1    1   22 1    
     2    1   33 1    
     3    1   34 1    
     4    1   35 1    
     5    2    4 ar   
     6    2   15 ar   
     7    2   36 1    
     8    3    5 ar   
     9    3   15 ar   
    10    3   37 1    
    11    4   16 ar   
    12    4   38 1    
    13    5   16 ar   
    14    5   39 1    
    15    6    7 1    
    16    6   17 1    
    17    6   40 1    
    18    6   41 1    
    19    7   17 1    
    20    7   42 1    
    21    7   43 1    
    22    8   12 1    
    23    8   18 1    
    24    8   44 1    
    25    8   45 1    
    26    9   13 1    
    27    9   18 1    
    28    9   46 1    
    29    9   47 1    
    30   10   11 1    
    31   10   21 1    
    32   10   48 1    
    33   10   49 1    
    34   11   21 1    
    35   11   50 1    
    36   11   51 1    
    37   12   25 1    
    38   12   52 1    
    39   12   53 1    
    40   13   25 1    
    41   13   54 1    
    42   13   55 1    
    43   14   21 1    
    44   14   25 1    
    45   14   56 1    
    46   14   57 1    
    47   15   19 1    
    48   16   22 1    
    49   17   26 1    
    50   17   58 1    
    51   18   26 1    
    52   18   59 1    
    53   19   26 am   BACKBONE|DICT|INTERRES
    54   19   28 2    
    55   20   21 1    
    56   20   24 am   BACKBONE|DICT|INTERRES
    57   20   29 2    
    58   22   23 1    
    59   22   27 1    
    60   23   30 1    
    61   23   31 1    
    62   23   32 1    
    63   24   60 1    
    64   24   61 1    
    65   25   62 1    
    66   27   63 1    
@<TRIPOS>SUBSTRUCTURE
     1 <0>         1 GROUP             0       ****    0 ROOT    
@<TRIPOS>MOLECULE
A49_2_3FRJ
63   66    1
SMALL
USER_CHARGES


@<TRIPOS>ATOM
      1 C1         51.1750   28.0988   42.0639 C.3       1 <0>        -0.1800 
      2 C2         52.6727   24.0094   41.3765 C.ar      1 <0>        -0.1150 
      3 C3         51.0187   23.9619   39.5925 C.ar      1 <0>        -0.1150 
      4 C4         52.5686   25.4121   41.4363 C.ar      1 <0>        -0.1150 
      5 C5         50.9174   25.3648   39.6516 C.ar      1 <0>        -0.1150 
      6 C6         52.1230   18.8507   39.6654 C.3       1 <0>        -0.1200 
      7 C7         52.9918   18.9948   38.4387 C.3       1 <0>        -0.1200 
      8 C8         55.4449   21.5305   39.3463 C.3       1 <0>        -0.1200 
      9 C9         53.9280   22.3224   37.5052 C.3       1 <0>        -0.1200 
     10 C10        59.1521   21.5406   37.6196 C.3       1 <0>        -0.1200 
     11 C11        58.8587   21.2326   36.1750 C.3       1 <0>        -0.1200 
     12 C12        56.5413   22.4366   38.7591 C.3       1 <0>         0.1500 
     13 C13        55.0785   23.1977   37.0035 C.3       1 <0>         0.1500 
     14 C14        57.4531   23.3883   36.7681 C.3       1 <0>         0.1500 
     15 C15        51.8799   23.2729   40.4702 C.ar      1 <0>        -0.1150 
     16 C16        51.6856   26.1088   40.5770 C.ar      1 <0>        -0.1150 
     17 C17        53.2807   19.8203   39.6697 C.3       1 <0>        -0.0149 
     18 C18        54.0409   22.0859   39.0284 C.3       1 <0>         0.0100 
     19 C19        51.9891   21.7761   40.3914 C.2       1 <0>         0.6150 
     20 C20        59.9113   23.5626   36.2042 C.2       1 <0>         0.5000 
     21 C21        58.7998   22.6680   36.6635 C.3       1 <0>         0.0000 
     22 C22        51.5547   27.6384   40.6417 C.3       1 <0>         0.3800 
     23 C23        52.8486   28.3375   40.1433 C.3       1 <0>         0.6171 
     24 N1         61.1258   23.0124   36.1657 N.am      1 <0>        -0.7600 
     25 N2         56.3639   22.5603   37.3083 N.4       1 <0>        -0.1000 
     26 N3         52.9714   21.2349   39.6169 N.am      1 <0>        -0.1151 
     27 O1         50.5021   28.1166   39.8202 O.3       1 <0>        -0.6936 
     28 O2         51.1765   21.1016   41.0233 O.2       1 <0>        -0.5000 
     29 O3         59.7247   24.7430   35.9217 O.2       1 <0>        -0.5000 
     30 F1         53.2061   27.8789   38.9434 F         1 <0>        -0.2057 
     31 F2         53.8569   28.1038   40.9855 F         1 <0>        -0.2057 
     32 F3         52.6613   29.6551   40.0469 F         1 <0>        -0.2057 
     33 H1         51.9448   27.8495   42.7937 H         1 <0>         0.0600 
     34 H2         51.0325   29.1790   42.1097 H         1 <0>         0.0600 
     35 H3         50.2463   27.6316   42.3938 H         1 <0>         0.0600 
     36 H4         53.3610   23.5002   42.0359 H         1 <0>         0.1150 
     37 H5         50.4250   23.4151   38.8736 H         1 <0>         0.1150 
     38 H6         53.1802   25.9421   42.1514 H         1 <0>         0.1150 
     39 H7         50.2397   25.8639   38.9751 H         1 <0>         0.1150 
     40 H8         52.2265   17.9384   40.2528 H         1 <0>         0.0600 
     41 H9         51.1164   19.2666   39.6227 H         1 <0>         0.0600 
     42 H10        52.5659   19.5071   37.5759 H         1 <0>         0.0600 
     43 H11        53.6760   18.1789   38.2060 H         1 <0>         0.0600 
     44 H12        55.5741   21.4445   40.4252 H         1 <0>         0.0600 
     45 H13        55.5451   20.5216   38.9460 H         1 <0>         0.0600 
     46 H14        53.9245   21.3732   36.9694 H         1 <0>         0.0600 
     47 H15        52.9743   22.8013   37.2831 H         1 <0>         0.0600 
     48 H16        60.1879   21.4645   37.9506 H         1 <0>         0.0600 
     49 H17        58.4039   21.2526   38.3581 H         1 <0>         0.0600 
     50 H18        57.9138   20.7401   35.9457 H         1 <0>         0.0600 
     51 H19        59.6977   20.9521   35.5382 H         1 <0>         0.0600 
     52 H20        56.5132   23.4173   39.2340 H         1 <0>         0.0600 
     53 H21        57.5191   22.0080   38.9788 H         1 <0>         0.0600 
     54 H22        55.0271   24.1906   37.4505 H         1 <0>         0.0600 
     55 H23        54.9759   23.3312   35.9266 H         1 <0>         0.0600 
     56 H24        57.1900   23.7243   35.7639 H         1 <0>         0.0600 
     57 H25        57.5625   24.2912   37.3710 H         1 <0>         0.0600 
     58 H26        54.1581   19.5562   40.2600 H         1 <0>         0.0600 
     59 H27        53.9835   23.0832   39.4593 H         1 <0>         0.0600 
     60 H28        61.9128   23.5692   35.8628 H         1 <0>         0.3800 
     61 H29        61.2549   22.0377   36.3956 H         1 <0>         0.3800 
     62 H30        56.3789   21.6406   36.8913 H         1 <0>         0.2900 
     63 H31        50.4805   29.0595   39.8870 H         1 <0>         0.4286 
@<TRIPOS>BOND
     1    1   22 1    
     2    1   33 1    
     3    1   34 1    
     4    1   35 1    
     5    2    4 ar   
     6    2   15 ar   
     7    2   36 1    
     8    3    5 ar   
     9    3   15 ar   
    10    3   37 1    
    11    4   16 ar   
    12    4   38 1    
    13    5   16 ar   
    14    5   39 1    
    15    6    7 1    
    16    6   17 1    
    17    6   40 1    
    18    6   41 1    
    19    7   17 1    
    20    7   42 1    
    21    7   43 1    
    22    8   12 1    
    23    8   18 1    
    24    8   44 1    
    25    8   45 1    
    26    9   13 1    
    27    9   18 1    
    28    9   46 1    
    29    9   47 1    
    30   10   11 1    
    31   10   21 1    
    32   10   48 1    
    33   10   49 1    
    34   11   21 1    
    35   11   50 1    
    36   11   51 1    
    37   12   25 1    
    38   12   52 1    
    39   12   53 1    
    40   13   25 1    
    41   13   54 1    
    42   13   55 1    
    43   14   21 1    
    44   14   25 1    
    45   14   56 1    
    46   14   57 1    
    47   15   19 1    
    48   16   22 1    
    49   17   26 1    
    50   17   58 1    
    51   18   26 1    
    52   18   59 1    
    53   19   26 am   BACKBONE|DICT|INTERRES
    54   19   28 2    
    55   20   21 1    
    56   20   24 am   BACKBONE|DICT|INTERRES
    57   20   29 2    
    58   22   23 1    
    59   22   27 1    
    60   23   30 1    
    61   23   31 1    
    62   23   32 1    
    63   24   60 1    
    64   24   61 1    
    65   25   62 1    
    66   27   63 1    
@<TRIPOS>SUBSTRUCTURE
     1 <0>         1 GROUP             0       ****    0 ROOT    
@<TRIPOS>MOLECULE
A49_2_3FRJ
63   66    1
SMALL
USER_CHARGES


@<TRIPOS>ATOM
      1 C1         51.3087   28.7393   41.6360 C.3       1 <0>        -0.1800 
      2 C2         51.8136   24.5250   41.7500 C.ar      1 <0>        -0.1150 
      3 C3         51.8775   24.3726   39.3223 C.ar      1 <0>        -0.1150 
      4 C4         51.7726   25.9294   41.6612 C.ar      1 <0>        -0.1150 
      5 C5         51.8390   25.7773   39.2350 C.ar      1 <0>        -0.1150 
      6 C6         51.9890   19.2608   40.4917 C.3       1 <0>        -0.1200 
      7 C7         52.6896   19.1769   39.1566 C.3       1 <0>        -0.1200 
      8 C8         55.3068   21.7689   39.5118 C.3       1 <0>        -0.1200 
      9 C9         53.7106   22.3810   37.6692 C.3       1 <0>        -0.1200 
     10 C10        58.8653   21.5176   37.7681 C.3       1 <0>        -0.1200 
     11 C11        58.7357   21.1152   36.3228 C.3       1 <0>        -0.1200 
     12 C12        56.3898   22.5677   38.7655 C.3       1 <0>         0.1500 
     13 C13        54.8516   23.1578   37.0085 C.3       1 <0>         0.1500 
     14 C14        57.2137   23.2512   36.6312 C.3       1 <0>         0.1500 
     15 C15        51.8417   23.7364   40.5796 C.ar      1 <0>        -0.1150 
     16 C16        51.7804   26.5747   40.4015 C.ar      1 <0>        -0.1150 
     17 C17        53.1460   20.1821   40.1870 C.3       1 <0>        -0.0149 
     18 C18        53.9004   22.3228   39.2020 C.3       1 <0>         0.0100 
     19 C19        51.8945   22.2368   40.6622 C.2       1 <0>         0.6150 
     20 C20        59.7118   23.4784   36.3165 C.2       1 <0>         0.5000 
     21 C21        58.5840   22.5739   36.7123 C.3       1 <0>         0.0000 
     22 C22        51.7237   28.1064   40.2922 C.3       1 <0>         0.3800 
     23 C23        53.0707   28.6863   39.7816 C.3       1 <0>         0.6171 
     24 N1         60.9031   22.8967   36.1699 N.am      1 <0>        -0.7600 
     25 N2         56.1370   22.5243   37.3213 N.4       1 <0>        -0.1000 
     26 N3         52.8455   21.5782   39.9416 N.am      1 <0>        -0.1151 
     27 O1         50.7316   28.5370   39.3747 O.3       1 <0>        -0.6936 
     28 O2         51.0662   21.6659   41.3711 O.2       1 <0>        -0.5000 
     29 O3         59.5595   24.6889   36.1776 O.2       1 <0>        -0.5000 
     30 F1         53.4924   28.0306   38.6998 F         1 <0>        -0.2057 
     31 F2         54.0120   28.5708   40.7204 F         1 <0>        -0.2057 
     32 F3         52.9343   29.9744   39.4612 F         1 <0>        -0.2057 
     33 H1         52.0339   28.5384   42.4241 H         1 <0>         0.0600 
     34 H2         51.2187   29.8231   41.5566 H         1 <0>         0.0600 
     35 H3         50.3447   28.3543   41.9711 H         1 <0>         0.0600 
     36 H4         51.8166   24.0550   42.7231 H         1 <0>         0.1150 
     37 H5         51.9269   23.7842   38.4171 H         1 <0>         0.1150 
     38 H6         51.7378   26.5008   42.5771 H         1 <0>         0.1150 
     39 H7         51.8550   26.2359   38.2576 H         1 <0>         0.1150 
     40 H8         52.1607   18.4533   41.2034 H         1 <0>         0.0600 
     41 H9         50.9895   19.6950   40.5108 H         1 <0>         0.0600 
     42 H10        52.1585   19.5551   38.2832 H         1 <0>         0.0600 
     43 H11        53.3297   18.3133   38.9758 H         1 <0>         0.0600 
     44 H12        55.4922   21.8072   40.5853 H         1 <0>         0.0600 
     45 H13        55.3626   20.7174   39.2303 H         1 <0>         0.0600 
     46 H14        53.6570   21.3757   37.2514 H         1 <0>         0.0600 
     47 H15        52.7573   22.8574   37.4404 H         1 <0>         0.0600 
     48 H16        59.8619   21.4976   38.2092 H         1 <0>         0.0600 
     49 H17        58.0516   21.2474   38.4412 H         1 <0>         0.0600 
     50 H18        57.8349   20.5772   36.0274 H         1 <0>         0.0600 
     51 H19        59.6451   20.8273   35.7954 H         1 <0>         0.0600 
     52 H20        56.4093   23.5980   39.1207 H         1 <0>         0.0600 
     53 H21        57.3682   22.1402   38.9846 H         1 <0>         0.0600 
     54 H22        54.8466   24.1975   37.3358 H         1 <0>         0.0600 
     55 H23        54.6939   23.1661   35.9300 H         1 <0>         0.0600 
     56 H24        56.9659   23.3485   35.5731 H         1 <0>         0.0600 
     57 H25        57.2801   24.2680   37.0218 H         1 <0>         0.0600 
     58 H26        54.0912   19.9905   40.6950 H         1 <0>         0.0600 
     59 H27        53.8886   23.3653   39.5131 H         1 <0>         0.0600 
     60 H28        61.6996   23.4585   35.9031 H         1 <0>         0.3800 
     61 H29        61.0038   21.8982   36.2823 H         1 <0>         0.3800 
     62 H30        56.1089   21.5617   37.0169 H         1 <0>         0.2900 
     63 H31        50.8476   29.4639   39.2279 H         1 <0>         0.4286 
@<TRIPOS>BOND
     1    1   22 1    
     2    1   33 1    
     3    1   34 1    
     4    1   35 1    
     5    2    4 ar   
     6    2   15 ar   
     7    2   36 1    
     8    3    5 ar   
     9    3   15 ar   
    10    3   37 1    
    11    4   16 ar   
    12    4   38 1    
    13    5   16 ar   
    14    5   39 1    
    15    6    7 1    
    16    6   17 1    
    17    6   40 1    
    18    6   41 1    
    19    7   17 1    
    20    7   42 1    
    21    7   43 1    
    22    8   12 1    
    23    8   18 1    
    24    8   44 1    
    25    8   45 1    
    26    9   13 1    
    27    9   18 1    
    28    9   46 1    
    29    9   47 1    
    30   10   11 1    
    31   10   21 1    
    32   10   48 1    
    33   10   49 1    
    34   11   21 1    
    35   11   50 1    
    36   11   51 1    
    37   12   25 1    
    38   12   52 1    
    39   12   53 1    
    40   13   25 1    
    41   13   54 1    
    42   13   55 1    
    43   14   21 1    
    44   14   25 1    
    45   14   56 1    
    46   14   57 1    
    47   15   19 1    
    48   16   22 1    
    49   17   26 1    
    50   17   58 1    
    51   18   26 1    
    52   18   59 1    
    53   19   26 am   BACKBONE|DICT|INTERRES
    54   19   28 2    
    55   20   21 1    
    56   20   24 am   BACKBONE|DICT|INTERRES
    57   20   29 2    
    58   22   23 1    
    59   22   27 1    
    60   23   30 1    
    61   23   31 1    
    62   23   32 1    
    63   24   60 1    
    64   24   61 1    
    65   25   62 1    
    66   27   63 1    
@<TRIPOS>SUBSTRUCTURE
     1 <0>         1 GROUP             0       ****    0 ROOT    
@<TRIPOS>MOLECULE
A49_2_3FRJ
63   66    1
SMALL
USER_CHARGES


@<TRIPOS>ATOM
      1 C1         51.5687   28.9030   39.3701 C.3       1 <0>        -0.1800 
      2 C2         51.2179   24.5802   39.8935 C.ar      1 <0>        -0.1150 
      3 C3         52.9206   24.6747   41.6377 C.ar      1 <0>        -0.1150 
      4 C4         51.2022   25.9884   39.8333 C.ar      1 <0>        -0.1150 
      5 C5         52.9066   26.0787   41.5740 C.ar      1 <0>        -0.1150 
      6 C6         51.8000   19.3413   40.5705 C.3       1 <0>        -0.1200 
      7 C7         52.6323   19.3261   39.3195 C.3       1 <0>        -0.1200 
      8 C8         55.4301   21.5904   39.6854 C.3       1 <0>        -0.1200 
      9 C9         53.7144   22.3363   38.0049 C.3       1 <0>        -0.1200 
     10 C10        59.7749   23.0947   36.0423 C.3       1 <0>        -0.1200 
     11 C11        59.6478   22.8516   37.5184 C.3       1 <0>        -0.1200 
     12 C12        56.5089   22.3437   38.8849 C.3       1 <0>         0.1500 
     13 C13        54.8274   23.0440   37.2177 C.3       1 <0>         0.1500 
     14 C14        57.2039   23.0009   36.5727 C.3       1 <0>         0.1500 
     15 C15        52.0715   23.9206   40.8016 C.ar      1 <0>        -0.1150 
     16 C16        52.0370   26.7513   40.6835 C.ar      1 <0>        -0.1150 
     17 C17        53.0283   20.2335   40.4729 C.3       1 <0>        -0.0149 
     18 C18        54.0565   22.2691   39.5054 C.3       1 <0>         0.0100 
     19 C19        52.0148   22.4322   40.9419 C.2       1 <0>         0.6150 
     20 C20        58.5528   20.8158   36.4362 C.2       1 <0>         0.5000 
     21 C21        58.5797   22.3183   36.5936 C.3       1 <0>         0.0000 
     22 C22        51.9665   28.2805   40.7222 C.3       1 <0>         0.3800 
     23 C23        50.9787   28.7197   41.8379 C.3       1 <0>         0.6171 
     24 N1         59.7123   20.2072   36.1704 N.am      1 <0>        -0.7600 
     25 N2         56.1508   22.4020   37.4399 N.4       1 <0>        -0.1000 
     26 N3         52.9459   21.6715   40.2942 N.am      1 <0>        -0.1151 
     27 O1         53.2518   28.8287   40.9703 O.3       1 <0>        -0.6936 
     28 O2         51.1213   21.9842   41.6601 O.2       1 <0>        -0.5000 
     29 O3         57.5279   20.1570   36.5704 O.2       1 <0>        -0.5000 
     30 F1         50.9252   30.0450   41.9564 F         1 <0>        -0.2057 
     31 F2         51.3207   28.1859   43.0103 F         1 <0>        -0.2057 
     32 F3         49.7498   28.2949   41.5408 F         1 <0>        -0.2057 
     33 H1         50.5422   28.6630   39.0932 H         1 <0>         0.0600 
     34 H2         51.6331   29.9916   39.4041 H         1 <0>         0.0600 
     35 H3         52.2261   28.5614   38.5708 H         1 <0>         0.0600 
     36 H4         50.5497   24.0107   39.2618 H         1 <0>         0.1150 
     37 H5         53.5613   24.1795   42.3522 H         1 <0>         0.1150 
     38 H6         50.5108   26.4616   39.1526 H         1 <0>         0.1150 
     39 H7         53.5354   26.6368   42.2501 H         1 <0>         0.1150 
     40 H8         51.8497   18.4491   41.1932 H         1 <0>         0.0600 
     41 H9         50.8095   19.7842   40.4901 H         1 <0>         0.0600 
     42 H10        52.1693   19.7598   38.4382 H         1 <0>         0.0600 
     43 H11        53.2493   18.4475   39.1374 H         1 <0>         0.0600 
     44 H12        55.7045   21.5675   40.7402 H         1 <0>         0.0600 
     45 H13        55.4000   20.5548   39.3446 H         1 <0>         0.0600 
     46 H14        53.5791   21.3356   37.5969 H         1 <0>         0.0600 
     47 H15        52.7699   22.8619   37.8550 H         1 <0>         0.0600 
     48 H16        60.5705   22.5734   35.5160 H         1 <0>         0.0600 
     49 H17        59.6091   24.1149   35.7031 H         1 <0>         0.0600 
     50 H18        59.3584   23.6732   38.1695 H         1 <0>         0.0600 
     51 H19        60.3235   22.1359   37.9761 H         1 <0>         0.0600 
     52 H20        56.6401   23.3535   39.2789 H         1 <0>         0.0600 
     53 H21        57.4610   21.8300   39.0199 H         1 <0>         0.0600 
     54 H22        54.8757   24.0961   37.5042 H         1 <0>         0.0600 
     55 H23        54.5814   23.0183   36.1548 H         1 <0>         0.0600 
     56 H24        56.8485   23.0131   35.5422 H         1 <0>         0.0600 
     57 H25        57.3322   24.0433   36.8611 H         1 <0>         0.0600 
     58 H26        53.8547   19.8928   41.0958 H         1 <0>         0.0600 
     59 H27        54.2367   23.2912   39.8303 H         1 <0>         0.0600 
     60 H28        59.7212   19.2048   36.0445 H         1 <0>         0.3800 
     61 H29        60.5617   20.7438   36.0810 H         1 <0>         0.3800 
     62 H30        56.0734   21.4388   37.1313 H         1 <0>         0.2900 
     63 H31        53.8364   28.4997   40.3042 H         1 <0>         0.4286 
@<TRIPOS>BOND
     1    1   22 1    
     2    1   33 1    
     3    1   34 1    
     4    1   35 1    
     5    2    4 ar   
     6    2   15 ar   
     7    2   36 1    
     8    3    5 ar   
     9    3   15 ar   
    10    3   37 1    
    11    4   16 ar   
    12    4   38 1    
    13    5   16 ar   
    14    5   39 1    
    15    6    7 1    
    16    6   17 1    
    17    6   40 1    
    18    6   41 1    
    19    7   17 1    
    20    7   42 1    
    21    7   43 1    
    22    8   12 1    
    23    8   18 1    
    24    8   44 1    
    25    8   45 1    
    26    9   13 1    
    27    9   18 1    
    28    9   46 1    
    29    9   47 1    
    30   10   11 1    
    31   10   21 1    
    32   10   48 1    
    33   10   49 1    
    34   11   21 1    
    35   11   50 1    
    36   11   51 1    
    37   12   25 1    
    38   12   52 1    
    39   12   53 1    
    40   13   25 1    
    41   13   54 1    
    42   13   55 1    
    43   14   21 1    
    44   14   25 1    
    45   14   56 1    
    46   14   57 1    
    47   15   19 1    
    48   16   22 1    
    49   17   26 1    
    50   17   58 1    
    51   18   26 1    
    52   18   59 1    
    53   19   26 am   BACKBONE|DICT|INTERRES
    54   19   28 2    
    55   20   21 1    
    56   20   24 am   BACKBONE|DICT|INTERRES
    57   20   29 2    
    58   22   23 1    
    59   22   27 1    
    60   23   30 1    
    61   23   31 1    
    62   23   32 1    
    63   24   60 1    
    64   24   61 1    
    65   25   62 1    
    66   27   63 1    
@<TRIPOS>SUBSTRUCTURE
     1 <0>         1 GROUP             0       ****    0 ROOT    
@<TRIPOS>MOLECULE
A49_2_3FRJ
63   66    1
SMALL
USER_CHARGES


@<TRIPOS>ATOM
      1 C1         52.0323   28.6729   39.0625 C.3       1 <0>        -0.1800 
      2 C2         51.6915   24.4602   39.4212 C.ar      1 <0>        -0.1150 
      3 C3         52.3973   24.4977   41.7495 C.ar      1 <0>        -0.1150 
      4 C4         51.7237   25.8672   39.3883 C.ar      1 <0>        -0.1150 
      5 C5         52.4268   25.9049   41.7160 C.ar      1 <0>        -0.1150 
      6 C6         51.9152   19.2785   40.3467 C.3       1 <0>        -0.1200 
      7 C7         52.6409   19.1962   39.0251 C.3       1 <0>        -0.1200 
      8 C8         55.3470   21.6009   39.3508 C.3       1 <0>        -0.1200 
      9 C9         53.7220   22.3797   37.5986 C.3       1 <0>        -0.1200 
     10 C10        59.8392   22.9705   35.9690 C.3       1 <0>        -0.1200 
     11 C11        59.6586   22.8781   37.4611 C.3       1 <0>        -0.1200 
     12 C12        56.4509   22.3481   38.5819 C.3       1 <0>         0.1500 
     13 C13        54.8857   23.0982   36.9120 C.3       1 <0>         0.1500 
     14 C14        57.2309   23.0432   36.4349 C.3       1 <0>         0.1500 
     15 C15        52.0519   23.7653   40.5958 C.ar      1 <0>        -0.1150 
     16 C16        52.0963   26.6089   40.5348 C.ar      1 <0>        -0.1150 
     17 C17        53.1233   20.1482   40.0933 C.3       1 <0>        -0.0149 
     18 C18        53.9708   22.2588   39.1192 C.3       1 <0>         0.0100 
     19 C19        52.0126   22.2638   40.6453 C.2       1 <0>         0.6150 
     20 C20        58.4703   20.8402   36.4752 C.2       1 <0>         0.5000 
     21 C21        58.5831   22.3334   36.5398 C.3       1 <0>         0.0000 
     22 C22        52.1468   28.1444   40.5069 C.3       1 <0>         0.3800 
     23 C23        51.0592   28.7620   41.4272 C.3       1 <0>         0.6171 
     24 N1         59.6080   20.1772   36.2621 N.am      1 <0>        -0.7600 
     25 N2         56.1360   22.3690   37.1495 N.4       1 <0>        -0.1000 
     26 N3         52.8985   21.5639   39.8817 N.am      1 <0>        -0.1151 
     27 O1         53.3908   28.6434   40.9706 O.3       1 <0>        -0.6936 
     28 O2         51.1715   21.7295   41.3676 O.2       1 <0>        -0.5000 
     29 O3         57.3907   20.2626   36.5689 O.2       1 <0>        -0.5000 
     30 F1         51.1407   30.0928   41.4348 F         1 <0>        -0.2057 
     31 F2         51.2166   28.3372   42.6824 F         1 <0>        -0.2057 
     32 F3         49.8401   28.4216   41.0045 F         1 <0>        -0.2057 
     33 H1         51.0775   28.4128   38.6063 H         1 <0>         0.0600 
     34 H2         52.1152   29.7596   39.0267 H         1 <0>         0.0600 
     35 H3         52.8207   28.2632   38.4300 H         1 <0>         0.0600 
     36 H4         51.3943   23.9157   38.5362 H         1 <0>         0.1150 
     37 H5         52.6493   23.9817   42.6652 H         1 <0>         0.1150 
     38 H6         51.4550   26.3654   38.4684 H         1 <0>         0.1150 
     39 H7         52.7074   26.4384   42.6118 H         1 <0>         0.1150 
     40 H8         52.0300   18.4440   41.0385 H         1 <0>         0.0600 
     41 H9         50.9383   19.7620   40.3570 H         1 <0>         0.0600 
     42 H10        52.1492   19.6247   38.1517 H         1 <0>         0.0600 
     43 H11        53.2410   18.3067   38.8332 H         1 <0>         0.0600 
     44 H12        55.5791   21.5915   40.4158 H         1 <0>         0.0600 
     45 H13        55.3182   20.5577   39.0360 H         1 <0>         0.0600 
     46 H14        53.5815   21.3945   37.1539 H         1 <0>         0.0600 
     47 H15        52.7953   22.9270   37.4259 H         1 <0>         0.0600 
     48 H16        60.5752   22.3112   35.5089 H         1 <0>         0.0600 
     49 H17        59.7423   23.9543   35.5097 H         1 <0>         0.0600 
     50 H18        59.4392   23.7993   38.0010 H         1 <0>         0.0600 
     51 H19        60.2721   22.1562   38.0001 H         1 <0>         0.0600 
     52 H20        56.5564   23.3626   38.9663 H         1 <0>         0.0600 
     53 H21        57.4056   21.8482   38.7454 H         1 <0>         0.0600 
     54 H22        54.9663   24.1247   37.2699 H         1 <0>         0.0600 
     55 H23        54.6844   23.1524   35.8422 H         1 <0>         0.0600 
     56 H24        56.9850   23.1102   35.3740 H         1 <0>         0.0600 
     57 H25        57.3241   24.0708   36.7900 H         1 <0>         0.0600 
     58 H26        54.0459   19.8952   40.6157 H         1 <0>         0.0600 
     59 H27        54.0442   23.2890   39.4613 H         1 <0>         0.0600 
     60 H28        59.5914   19.1682   36.2101 H         1 <0>         0.3800 
     61 H29        60.4854   20.6724   36.1952 H         1 <0>         0.3800 
     62 H30        56.0287   21.4210   36.8182 H         1 <0>         0.2900 
     63 H31        54.0684   28.0397   40.7052 H         1 <0>         0.4286 
@<TRIPOS>BOND
     1    1   22 1    
     2    1   33 1    
     3    1   34 1    
     4    1   35 1    
     5    2    4 ar   
     6    2   15 ar   
     7    2   36 1    
     8    3    5 ar   
     9    3   15 ar   
    10    3   37 1    
    11    4   16 ar   
    12    4   38 1    
    13    5   16 ar   
    14    5   39 1    
    15    6    7 1    
    16    6   17 1    
    17    6   40 1    
    18    6   41 1    
    19    7   17 1    
    20    7   42 1    
    21    7   43 1    
    22    8   12 1    
    23    8   18 1    
    24    8   44 1    
    25    8   45 1    
    26    9   13 1    
    27    9   18 1    
    28    9   46 1    
    29    9   47 1    
    30   10   11 1    
    31   10   21 1    
    32   10   48 1    
    33   10   49 1    
    34   11   21 1    
    35   11   50 1    
    36   11   51 1    
    37   12   25 1    
    38   12   52 1    
    39   12   53 1    
    40   13   25 1    
    41   13   54 1    
    42   13   55 1    
    43   14   21 1    
    44   14   25 1    
    45   14   56 1    
    46   14   57 1    
    47   15   19 1    
    48   16   22 1    
    49   17   26 1    
    50   17   58 1    
    51   18   26 1    
    52   18   59 1    
    53   19   26 am   BACKBONE|DICT|INTERRES
    54   19   28 2    
    55   20   21 1    
    56   20   24 am   BACKBONE|DICT|INTERRES
    57   20   29 2    
    58   22   23 1    
    59   22   27 1    
    60   23   30 1    
    61   23   31 1    
    62   23   32 1    
    63   24   60 1    
    64   24   61 1    
    65   25   62 1    
    66   27   63 1    
@<TRIPOS>SUBSTRUCTURE
     1 <0>         1 GROUP             0       ****    0 ROOT    
@<TRIPOS>MOLECULE
A49_2_3FRJ
63   66    1
SMALL
USER_CHARGES


@<TRIPOS>ATOM
      1 C1         52.1248   28.6420   39.0559 C.3       1 <0>        -0.1800 
      2 C2         52.4264   24.4741   41.7698 C.ar      1 <0>        -0.1150 
      3 C3         52.4189   24.4464   39.3367 C.ar      1 <0>        -0.1150 
      4 C4         52.3769   25.8810   41.7544 C.ar      1 <0>        -0.1150 
      5 C5         52.3718   25.8535   39.3227 C.ar      1 <0>        -0.1150 
      6 C6         52.4082   19.3612   40.3322 C.3       1 <0>        -0.1200 
      7 C7         52.5872   19.3812   38.8330 C.3       1 <0>        -0.1200 
      8 C8         55.8398   21.9152   39.6120 C.3       1 <0>        -0.1200 
      9 C9         54.4912   22.3330   37.5325 C.3       1 <0>        -0.1200 
     10 C10        59.5258   21.1274   37.2541 C.3       1 <0>        -0.1200 
     11 C11        59.0189   21.1056   35.8363 C.3       1 <0>        -0.1200 
     12 C12        56.9818   22.7210   38.9681 C.3       1 <0>         0.1500 
     13 C13        55.6795   23.1249   36.9826 C.3       1 <0>         0.1500 
     14 C14        58.0652   23.3146   36.9248 C.3       1 <0>         0.1500 
     15 C15        52.4231   23.7466   40.5602 C.ar      1 <0>        -0.1150 
     16 C16        52.3445   26.5899   40.5297 C.ar      1 <0>        -0.1150 
     17 C17        53.5116   20.1865   39.7145 C.3       1 <0>        -0.0149 
     18 C18        54.4683   22.3775   39.0773 C.3       1 <0>         0.0100 
     19 C19        52.4847   22.2450   40.5643 C.2       1 <0>         0.6150 
     20 C20        60.4356   23.2233   36.0508 C.2       1 <0>         0.5000 
     21 C21        59.2538   22.4350   36.5290 C.3       1 <0>         0.0000 
     22 C22        52.2782   28.1248   40.5008 C.3       1 <0>         0.3800 
     23 C23        51.1461   28.6585   41.4199 C.3       1 <0>         0.6171 
     24 N1         60.1599   24.3771   35.4409 N.am      1 <0>        -0.7600 
     25 N2         56.9343   22.5774   37.5091 N.4       1 <0>        -0.1000 
     26 N3         53.3529   21.6268   39.7147 N.am      1 <0>        -0.1151 
     27 O1         53.4803   28.7172   40.9648 O.3       1 <0>        -0.6936 
     28 O2         51.7374   21.6364   41.3296 O.2       1 <0>        -0.5000 
     29 O3         61.5865   22.8131   36.1731 O.2       1 <0>        -0.5000 
     30 F1         51.1742   29.9899   41.4866 F         1 <0>        -0.2057 
     31 F2         51.2919   28.1856   42.6592 F         1 <0>        -0.2057 
     32 F3         49.9516   28.2898   40.9534 F         1 <0>        -0.2057 
     33 H1         51.1928   28.3098   38.5993 H         1 <0>         0.0600 
     34 H2         52.1249   29.7319   39.0193 H         1 <0>         0.0600 
     35 H3         52.9425   28.2930   38.4241 H         1 <0>         0.0600 
     36 H4         52.4604   23.9550   42.7170 H         1 <0>         0.1150 
     37 H5         52.4438   23.9053   38.4014 H         1 <0>         0.1150 
     38 H6         52.3669   26.4046   42.6989 H         1 <0>         0.1150 
     39 H7         52.3569   26.3615   38.3700 H         1 <0>         0.1150 
     40 H8         52.6937   18.4528   40.8626 H         1 <0>         0.0600 
     41 H9         51.5510   19.8929   40.7454 H         1 <0>         0.0600 
     42 H10        51.8497   19.9262   38.2437 H         1 <0>         0.0600 
     43 H11        52.9924   18.4861   38.3610 H         1 <0>         0.0600 
     44 H12        55.8725   22.0279   40.6957 H         1 <0>         0.0600 
     45 H13        55.9781   20.8527   39.4118 H         1 <0>         0.0600 
     46 H14        54.5381   21.3028   37.1796 H         1 <0>         0.0600 
     47 H15        53.5599   22.7458   37.1448 H         1 <0>         0.0600 
     48 H16        60.5666   20.8499   37.4213 H         1 <0>         0.0600 
     49 H17        58.8321   20.8331   38.0417 H         1 <0>         0.0600 
     50 H18        57.9857   20.7985   35.6742 H         1 <0>         0.0600 
     51 H19        59.7202   20.8153   35.0539 H         1 <0>         0.0600 
     52 H20        56.9088   23.7706   39.2528 H         1 <0>         0.0600 
     53 H21        57.9372   22.3576   39.3465 H         1 <0>         0.0600 
     54 H22        55.5858   24.1810   37.2357 H         1 <0>         0.0600 
     55 H23        55.6731   23.0598   35.8946 H         1 <0>         0.0600 
     56 H24        57.7342   23.8317   36.0228 H         1 <0>         0.0600 
     57 H25        58.3943   24.0918   37.6164 H         1 <0>         0.0600 
     58 H26        54.5349   19.8298   39.8320 H         1 <0>         0.0600 
     59 H27        54.3700   23.4350   39.3133 H         1 <0>         0.0600 
     60 H28        60.9183   24.9504   35.0986 H         1 <0>         0.3800 
     61 H29        59.2061   24.6982   35.3576 H         1 <0>         0.3800 
     62 H30        56.9890   21.5979   37.2689 H         1 <0>         0.2900 
     63 H31        54.0967   28.0254   41.1536 H         1 <0>         0.4286 
@<TRIPOS>BOND
     1    1   22 1    
     2    1   33 1    
     3    1   34 1    
     4    1   35 1    
     5    2    4 ar   
     6    2   15 ar   
     7    2   36 1    
     8    3    5 ar   
     9    3   15 ar   
    10    3   37 1    
    11    4   16 ar   
    12    4   38 1    
    13    5   16 ar   
    14    5   39 1    
    15    6    7 1    
    16    6   17 1    
    17    6   40 1    
    18    6   41 1    
    19    7   17 1    
    20    7   42 1    
    21    7   43 1    
    22    8   12 1    
    23    8   18 1    
    24    8   44 1    
    25    8   45 1    
    26    9   13 1    
    27    9   18 1    
    28    9   46 1    
    29    9   47 1    
    30   10   11 1    
    31   10   21 1    
    32   10   48 1    
    33   10   49 1    
    34   11   21 1    
    35   11   50 1    
    36   11   51 1    
    37   12   25 1    
    38   12   52 1    
    39   12   53 1    
    40   13   25 1    
    41   13   54 1    
    42   13   55 1    
    43   14   21 1    
    44   14   25 1    
    45   14   56 1    
    46   14   57 1    
    47   15   19 1    
    48   16   22 1    
    49   17   26 1    
    50   17   58 1    
    51   18   26 1    
    52   18   59 1    
    53   19   26 am   BACKBONE|DICT|INTERRES
    54   19   28 2    
    55   20   21 1    
    56   20   24 am   BACKBONE|DICT|INTERRES
    57   20   29 2    
    58   22   23 1    
    59   22   27 1    
    60   23   30 1    
    61   23   31 1    
    62   23   32 1    
    63   24   60 1    
    64   24   61 1    
    65   25   62 1    
    66   27   63 1    
@<TRIPOS>SUBSTRUCTURE
     1 <0>         1 GROUP             0       ****    0 ROOT    
@<TRIPOS>MOLECULE
A49_2_3FRJ
63   66    1
SMALL
USER_CHARGES


@<TRIPOS>ATOM
      1 C1         52.0020   28.6696   39.0751 C.3       1 <0>        -0.1800 
      2 C2         51.5049   24.4646   39.4995 C.ar      1 <0>        -0.1150 
      3 C3         52.5356   24.4909   41.7035 C.ar      1 <0>        -0.1150 
      4 C4         51.5396   25.8716   39.4660 C.ar      1 <0>        -0.1150 
      5 C5         52.5674   25.8980   41.6698 C.ar      1 <0>        -0.1150 
      6 C6         51.8953   19.2764   40.3659 C.3       1 <0>        -0.1200 
      7 C7         52.6379   19.1922   39.0538 C.3       1 <0>        -0.1200 
      8 C8         55.3252   21.5595   39.3534 C.3       1 <0>        -0.1200 
      9 C9         53.7020   22.4329   37.6445 C.3       1 <0>        -0.1200 
     10 C10        59.8301   22.9805   36.0460 C.3       1 <0>        -0.1200 
     11 C11        59.6216   22.8417   37.5309 C.3       1 <0>        -0.1200 
     12 C12        56.4388   22.3057   38.5976 C.3       1 <0>         0.1500 
     13 C13        54.8755   23.1463   36.9696 C.3       1 <0>         0.1500 
     14 C14        57.2140   23.0525   36.4663 C.3       1 <0>         0.1500 
     15 C15        52.0254   23.7641   40.6089 C.ar      1 <0>        -0.1150 
     16 C16        52.0757   26.6076   40.5497 C.ar      1 <0>        -0.1150 
     17 C17        53.1055   20.1471   40.1260 C.3       1 <0>        -0.0149 
     18 C18        53.9626   22.2565   39.1577 C.3       1 <0>         0.0100 
     19 C19        51.9857   22.2626   40.6594 C.2       1 <0>         0.6150 
     20 C20        58.4418   20.8426   36.4589 C.2       1 <0>         0.5000 
     21 C21        58.5606   22.3324   36.5731 C.3       1 <0>         0.0000 
     22 C22        52.1298   28.1429   40.5191 C.3       1 <0>         0.3800 
     23 C23        51.0530   28.7646   41.4493 C.3       1 <0>         0.6171 
     24 N1         59.5695   20.1863   36.1821 N.am      1 <0>        -0.7600 
     25 N2         56.1106   22.3809   37.1700 N.4       1 <0>        -0.1000 
     26 N3         52.8818   21.5621   39.9085 N.am      1 <0>        -0.1151 
     27 O1         53.3796   28.6394   40.9694 O.3       1 <0>        -0.6936 
     28 O2         51.1351   21.7290   41.3709 O.2       1 <0>        -0.5000 
     29 O3         57.3647   20.2634   36.5698 O.2       1 <0>        -0.5000 
     30 F1         51.1384   30.0952   41.4545 F         1 <0>        -0.2057 
     31 F2         51.2216   28.3408   42.7034 F         1 <0>        -0.2057 
     32 F3         49.8289   28.4273   41.0390 F         1 <0>        -0.2057 
     33 H1         51.0421   28.4112   38.6289 H         1 <0>         0.0600 
     34 H2         52.0874   29.7560   39.0368 H         1 <0>         0.0600 
     35 H3         52.7831   28.2569   38.4353 H         1 <0>         0.0600 
     36 H4         51.0818   23.9246   38.6644 H         1 <0>         0.1150 
     37 H5         52.9128   23.9705   42.5725 H         1 <0>         0.1150 
     38 H6         51.1451   26.3742   38.5952 H         1 <0>         0.1150 
     39 H7         52.9757   26.4270   42.5180 H         1 <0>         0.1150 
     40 H8         52.0023   18.4436   41.0609 H         1 <0>         0.0600 
     41 H9         50.9178   19.7588   40.3626 H         1 <0>         0.0600 
     42 H10        52.1569   19.6181   38.1733 H         1 <0>         0.0600 
     43 H11        53.2414   18.3030   38.8715 H         1 <0>         0.0600 
     44 H12        55.5673   21.5098   40.4150 H         1 <0>         0.0600 
     45 H13        55.2688   20.5282   39.0051 H         1 <0>         0.0600 
     46 H14        53.5340   21.4663   37.1695 H         1 <0>         0.0600 
     47 H15        52.7868   23.0069   37.4995 H         1 <0>         0.0600 
     48 H16        60.5713   22.3322   35.5786 H         1 <0>         0.0600 
     49 H17        59.7464   23.9789   35.6167 H         1 <0>         0.0600 
     50 H18        59.3968   23.7464   38.0958 H         1 <0>         0.0600 
     51 H19        60.2216   22.0997   38.0577 H         1 <0>         0.0600 
     52 H20        56.5720   23.3043   39.0137 H         1 <0>         0.0600 
     53 H21        57.3830   21.7786   38.7347 H         1 <0>         0.0600 
     54 H22        54.9838   24.1583   37.3598 H         1 <0>         0.0600 
     55 H23        54.6651   23.2402   35.9042 H         1 <0>         0.0600 
     56 H24        56.9743   23.1290   35.4046 H         1 <0>         0.0600 
     57 H25        57.3126   24.0768   36.8295 H         1 <0>         0.0600 
     58 H26        54.0217   19.8963   40.6606 H         1 <0>         0.0600 
     59 H27        54.0636   23.2729   39.5323 H         1 <0>         0.0600 
     60 H28        59.5485   19.1798   36.0944 H         1 <0>         0.3800 
     61 H29        60.4454   20.6824   36.1020 H         1 <0>         0.3800 
     62 H30        55.9777   21.4470   36.8092 H         1 <0>         0.2900 
     63 H31        54.0536   28.0362   40.6938 H         1 <0>         0.4286 
@<TRIPOS>BOND
     1    1   22 1    
     2    1   33 1    
     3    1   34 1    
     4    1   35 1    
     5    2    4 ar   
     6    2   15 ar   
     7    2   36 1    
     8    3    5 ar   
     9    3   15 ar   
    10    3   37 1    
    11    4   16 ar   
    12    4   38 1    
    13    5   16 ar   
    14    5   39 1    
    15    6    7 1    
    16    6   17 1    
    17    6   40 1    
    18    6   41 1    
    19    7   17 1    
    20    7   42 1    
    21    7   43 1    
    22    8   12 1    
    23    8   18 1    
    24    8   44 1    
    25    8   45 1    
    26    9   13 1    
    27    9   18 1    
    28    9   46 1    
    29    9   47 1    
    30   10   11 1    
    31   10   21 1    
    32   10   48 1    
    33   10   49 1    
    34   11   21 1    
    35   11   50 1    
    36   11   51 1    
    37   12   25 1    
    38   12   52 1    
    39   12   53 1    
    40   13   25 1    
    41   13   54 1    
    42   13   55 1    
    43   14   21 1    
    44   14   25 1    
    45   14   56 1    
    46   14   57 1    
    47   15   19 1    
    48   16   22 1    
    49   17   26 1    
    50   17   58 1    
    51   18   26 1    
    52   18   59 1    
    53   19   26 am   BACKBONE|DICT|INTERRES
    54   19   28 2    
    55   20   21 1    
    56   20   24 am   BACKBONE|DICT|INTERRES
    57   20   29 2    
    58   22   23 1    
    59   22   27 1    
    60   23   30 1    
    61   23   31 1    
    62   23   32 1    
    63   24   60 1    
    64   24   61 1    
    65   25   62 1    
    66   27   63 1    
@<TRIPOS>SUBSTRUCTURE
     1 <0>         1 GROUP             0       ****    0 ROOT    
@<TRIPOS>MOLECULE
A49_2_3FRJ
63   66    1
SMALL
USER_CHARGES


@<TRIPOS>ATOM
      1 C1         53.8530   22.6150   37.3957 C.3       1 <0>        -0.1800 
      2 C2         51.2467   23.3854   40.8187 C.ar      1 <0>        -0.1150 
      3 C3         50.7990   21.0019   40.7211 C.ar      1 <0>        -0.1150 
      4 C4         52.3987   23.2044   40.0313 C.ar      1 <0>        -0.1150 
      5 C5         51.9480   20.8160   39.9328 C.ar      1 <0>        -0.1150 
      6 C6         48.1605   23.2198   39.0815 C.3       1 <0>        -0.1200 
      7 C7         46.9836   24.0442   39.5420 C.3       1 <0>        -0.1200 
      8 C8         47.3457   25.7030   42.3725 C.3       1 <0>        -0.1200 
      9 C9         46.3291   23.5245   43.1154 C.3       1 <0>        -0.1200 
     10 C10        43.8155   28.8590   45.5322 C.3       1 <0>        -0.1200 
     11 C11        44.7361   29.0528   44.3643 C.3       1 <0>        -0.1200 
     12 C12        46.6487   26.4000   43.5335 C.3       1 <0>         0.1500 
     13 C13        45.6034   24.2855   44.2413 C.3       1 <0>         0.1500 
     14 C14        44.6547   26.4418   44.9700 C.3       1 <0>         0.1500 
     15 C15        50.4128   22.2897   41.1363 C.ar      1 <0>        -0.1150 
     16 C16        52.7522   21.9191   39.5608 C.ar      1 <0>        -0.1150 
     17 C17        48.2882   24.0927   40.3097 C.3       1 <0>        -0.0149 
     18 C18        47.6368   24.2225   42.7073 C.3       1 <0>         0.0100 
     19 C19        49.1688   22.4784   41.9594 C.2       1 <0>         0.6150 
     20 C20        42.9066   27.5030   43.4977 C.2       1 <0>         0.5000 
     21 C21        43.9840   27.7387   44.5145 C.3       1 <0>         0.0000 
     22 C22        53.9767   21.7344   38.6564 C.3       1 <0>         0.3800 
     23 C23        55.3054   21.9969   39.4167 C.3       1 <0>         0.6171 
     24 N1         41.7235   28.0450   43.7703 N.am      1 <0>        -0.7600 
     25 N2         45.3824   25.7173   43.8991 N.4       1 <0>        -0.1000 
     26 N3         48.3374   23.4975   41.6243 N.am      1 <0>        -0.1151 
     27 O1         54.0631   20.4078   38.1737 O.3       1 <0>        -0.6936 
     28 O2         48.9898   21.7693   42.9547 O.2       1 <0>        -0.5000 
     29 O3         43.0925   26.8462   42.4751 O.2       1 <0>        -0.5000 
     30 F1         55.3938   23.2761   39.7705 F         1 <0>        -0.2057 
     31 F2         56.3590   21.7137   38.6481 F         1 <0>        -0.2057 
     32 F3         55.3579   21.2464   40.5197 F         1 <0>        -0.2057 
     33 H1         53.8450   23.6782   37.6329 H         1 <0>         0.0600 
     34 H2         54.6852   22.4440   36.7118 H         1 <0>         0.0600 
     35 H3         52.9305   22.3955   36.8529 H         1 <0>         0.0600 
     36 H4         50.9995   24.3795   41.1644 H         1 <0>         0.1150 
     37 H5         50.1889   20.1458   40.9721 H         1 <0>         0.1150 
     38 H6         53.0054   24.0623   39.7816 H         1 <0>         0.1150 
     39 H7         52.1822   19.8125   39.6055 H         1 <0>         0.1150 
     40 H8         48.6818   23.5452   38.1825 H         1 <0>         0.0600 
     41 H9         48.1090   22.1429   39.2254 H         1 <0>         0.0600 
     42 H10        46.1407   23.5254   39.9962 H         1 <0>         0.0600 
     43 H11        46.7153   24.9093   38.9442 H         1 <0>         0.0600 
     44 H12        48.2772   26.2263   42.1486 H         1 <0>         0.0600 
     45 H13        46.7055   25.8007   41.4960 H         1 <0>         0.0600 
     46 H14        45.6886   23.4394   42.2422 H         1 <0>         0.0600 
     47 H15        46.5192   22.5035   43.4461 H         1 <0>         0.0600 
     48 H16        42.9148   29.4690   45.5486 H         1 <0>         0.0600 
     49 H17        44.2743   28.6994   46.5045 H         1 <0>         0.0600 
     50 H18        45.8016   29.0737   44.5700 H         1 <0>         0.0600 
     51 H19        44.4113   29.7416   43.5852 H         1 <0>         0.0600 
     52 H20        47.3105   26.4341   44.3978 H         1 <0>         0.0600 
     53 H21        46.4620   27.4283   43.2310 H         1 <0>         0.0600 
     54 H22        46.1864   24.2215   45.1624 H         1 <0>         0.0600 
     55 H23        44.6454   23.8042   44.4421 H         1 <0>         0.0600 
     56 H24        43.8744   25.7961   45.3715 H         1 <0>         0.0600 
     57 H25        45.3402   26.6521   45.7915 H         1 <0>         0.0600 
     58 H26        48.8923   24.9875   40.1708 H         1 <0>         0.0600 
     59 H27        48.2908   24.2341   43.5811 H         1 <0>         0.0600 
     60 H28        41.0138   28.1063   43.0470 H         1 <0>         0.3800 
     61 H29        41.6096   28.6334   44.5875 H         1 <0>         0.3800 
     62 H30        44.7780   25.7383   43.0861 H         1 <0>         0.2900 
     63 H31        54.3046   19.8522   38.9008 H         1 <0>         0.4286 
@<TRIPOS>BOND
     1    1   22 1    
     2    1   33 1    
     3    1   34 1    
     4    1   35 1    
     5    2    4 ar   
     6    2   15 ar   
     7    2   36 1    
     8    3    5 ar   
     9    3   15 ar   
    10    3   37 1    
    11    4   16 ar   
    12    4   38 1    
    13    5   16 ar   
    14    5   39 1    
    15    6    7 1    
    16    6   17 1    
    17    6   40 1    
    18    6   41 1    
    19    7   17 1    
    20    7   42 1    
    21    7   43 1    
    22    8   12 1    
    23    8   18 1    
    24    8   44 1    
    25    8   45 1    
    26    9   13 1    
    27    9   18 1    
    28    9   46 1    
    29    9   47 1    
    30   10   11 1    
    31   10   21 1    
    32   10   48 1    
    33   10   49 1    
    34   11   21 1    
    35   11   50 1    
    36   11   51 1    
    37   12   25 1    
    38   12   52 1    
    39   12   53 1    
    40   13   25 1    
    41   13   54 1    
    42   13   55 1    
    43   14   21 1    
    44   14   25 1    
    45   14   56 1    
    46   14   57 1    
    47   15   19 1    
    48   16   22 1    
    49   17   26 1    
    50   17   58 1    
    51   18   26 1    
    52   18   59 1    
    53   19   26 am   BACKBONE|DICT|INTERRES
    54   19   28 2    
    55   20   21 1    
    56   20   24 am   BACKBONE|DICT|INTERRES
    57   20   29 2    
    58   22   23 1    
    59   22   27 1    
    60   23   30 1    
    61   23   31 1    
    62   23   32 1    
    63   24   60 1    
    64   24   61 1    
    65   25   62 1    
    66   27   63 1    
@<TRIPOS>SUBSTRUCTURE
     1 <0>         1 GROUP             0       ****    0 ROOT    
@<TRIPOS>MOLECULE
A49_2_3FRJ
63   66    1
SMALL
USER_CHARGES


@<TRIPOS>ATOM
      1 C1         51.1560   28.6889   41.6721 C.3       1 <0>        -0.1800 
      2 C2         51.4252   24.3529   39.4162 C.ar      1 <0>        -0.1150 
      3 C3         52.3357   24.5263   41.6660 C.ar      1 <0>        -0.1150 
      4 C4         51.3434   25.7563   39.3407 C.ar      1 <0>        -0.1150 
      5 C5         52.2510   25.9296   41.5902 C.ar      1 <0>        -0.1150 
      6 C6         51.9298   19.2701   40.1934 C.3       1 <0>        -0.1200 
      7 C7         52.6580   19.2649   38.8706 C.3       1 <0>        -0.1200 
      8 C8         55.3764   21.6750   39.3945 C.3       1 <0>        -0.1200 
      9 C9         53.7778   22.4789   37.6292 C.3       1 <0>        -0.1200 
     10 C10        58.8271   21.2453   37.4108 C.3       1 <0>        -0.1200 
     11 C11        58.6989   21.0987   35.9176 C.3       1 <0>        -0.1200 
     12 C12        56.4834   22.4656   38.6752 C.3       1 <0>         0.1500 
     13 C13        54.9433   23.2393   36.9928 C.3       1 <0>         0.1500 
     14 C14        57.2995   23.2414   36.5696 C.3       1 <0>         0.1500 
     15 C15        51.9451   23.7294   40.5710 C.ar      1 <0>        -0.1150 
     16 C16        51.7596   26.5642   40.4259 C.ar      1 <0>        -0.1150 
     17 C17        53.1397   20.1514   39.9941 C.3       1 <0>        -0.0149 
     18 C18        53.9937   22.3151   39.1508 C.3       1 <0>         0.0100 
     19 C19        52.0290   22.2320   40.6662 C.2       1 <0>         0.6150 
     20 C20        59.8115   23.3663   36.3150 C.2       1 <0>         0.5000 
     21 C21        58.6262   22.4783   36.5454 C.3       1 <0>         0.0000 
     22 C22        51.6861   28.0972   40.3501 C.3       1 <0>         0.3800 
     23 C23        53.0592   28.7098   39.9622 C.3       1 <0>         0.6171 
     24 N1         59.5483   24.6658   36.1699 N.am      1 <0>        -0.7600 
     25 N2         56.2012   22.5256   37.2370 N.4       1 <0>        -0.1000 
     26 N3         52.9174   21.5775   39.8661 N.am      1 <0>        -0.1151 
     27 O1         50.7623   28.5367   39.3679 O.3       1 <0>        -0.6936 
     28 O2         51.2809   21.6588   41.4577 O.2       1 <0>        -0.5000 
     29 O3         60.9521   22.9211   36.2215 O.2       1 <0>        -0.5000 
     30 F1         53.9273   28.6103   40.9694 F         1 <0>        -0.2057 
     31 F2         52.9240   30.0043   39.6677 F         1 <0>        -0.2057 
     32 F3         53.5725   28.0767   38.9057 F         1 <0>        -0.2057 
     33 H1         51.8202   28.4784   42.5099 H         1 <0>         0.0600 
     34 H2         51.0545   29.7730   41.6125 H         1 <0>         0.0600 
     35 H3         50.1752   28.2813   41.9202 H         1 <0>         0.0600 
     36 H4         51.0923   23.7565   38.5787 H         1 <0>         0.1150 
     37 H5         52.7102   24.0636   42.5682 H         1 <0>         0.1150 
     38 H6         50.9533   26.1998   38.4365 H         1 <0>         0.1150 
     39 H7         52.5695   26.5141   42.4404 H         1 <0>         0.1150 
     40 H8         52.0421   18.3961   40.8349 H         1 <0>         0.0600 
     41 H9         50.9536   19.7537   40.2304 H         1 <0>         0.0600 
     42 H10        52.1687   19.7451   38.0231 H         1 <0>         0.0600 
     43 H11        53.2572   18.3874   38.6276 H         1 <0>         0.0600 
     44 H12        55.5840   21.6366   40.4638 H         1 <0>         0.0600 
     45 H13        55.3743   20.6418   39.0471 H         1 <0>         0.0600 
     46 H14        53.6660   21.5057   37.1512 H         1 <0>         0.0600 
     47 H15        52.8452   23.0145   37.4517 H         1 <0>         0.0600 
     48 H16        59.8132   21.0915   37.8493 H         1 <0>         0.0600 
     49 H17        57.9877   20.9162   38.0233 H         1 <0>         0.0600 
     50 H18        57.7733   20.6732   35.5298 H         1 <0>         0.0600 
     51 H19        59.5988   20.8486   35.3558 H         1 <0>         0.0600 
     52 H20        56.5611   23.4693   39.0931 H         1 <0>         0.0600 
     53 H21        57.4433   21.9781   38.8456 H         1 <0>         0.0600 
     54 H22        54.9965   24.2553   37.3839 H         1 <0>         0.0600 
     55 H23        54.7656   23.3232   35.9206 H         1 <0>         0.0600 
     56 H24        57.0252   23.4413   35.5326 H         1 <0>         0.0600 
     57 H25        57.4420   24.2162   37.0388 H         1 <0>         0.0600 
     58 H26        54.0609   19.8665   40.5024 H         1 <0>         0.0600 
     59 H27        54.0400   23.3352   39.5261 H         1 <0>         0.0600 
     60 H28        60.3097   25.3113   36.0129 H         1 <0>         0.3800 
     61 H29        58.6033   25.0107   36.2576 H         1 <0>         0.3800 
     62 H30        56.1193   21.5866   36.8742 H         1 <0>         0.2900 
     63 H31        50.8796   29.4672   39.2476 H         1 <0>         0.4286 
@<TRIPOS>BOND
     1    1   22 1    
     2    1   33 1    
     3    1   34 1    
     4    1   35 1    
     5    2    4 ar   
     6    2   15 ar   
     7    2   36 1    
     8    3    5 ar   
     9    3   15 ar   
    10    3   37 1    
    11    4   16 ar   
    12    4   38 1    
    13    5   16 ar   
    14    5   39 1    
    15    6    7 1    
    16    6   17 1    
    17    6   40 1    
    18    6   41 1    
    19    7   17 1    
    20    7   42 1    
    21    7   43 1    
    22    8   12 1    
    23    8   18 1    
    24    8   44 1    
    25    8   45 1    
    26    9   13 1    
    27    9   18 1    
    28    9   46 1    
    29    9   47 1    
    30   10   11 1    
    31   10   21 1    
    32   10   48 1    
    33   10   49 1    
    34   11   21 1    
    35   11   50 1    
    36   11   51 1    
    37   12   25 1    
    38   12   52 1    
    39   12   53 1    
    40   13   25 1    
    41   13   54 1    
    42   13   55 1    
    43   14   21 1    
    44   14   25 1    
    45   14   56 1    
    46   14   57 1    
    47   15   19 1    
    48   16   22 1    
    49   17   26 1    
    50   17   58 1    
    51   18   26 1    
    52   18   59 1    
    53   19   26 am   BACKBONE|DICT|INTERRES
    54   19   28 2    
    55   20   21 1    
    56   20   24 am   BACKBONE|DICT|INTERRES
    57   20   29 2    
    58   22   23 1    
    59   22   27 1    
    60   23   30 1    
    61   23   31 1    
    62   23   32 1    
    63   24   60 1    
    64   24   61 1    
    65   25   62 1    
    66   27   63 1    
@<TRIPOS>SUBSTRUCTURE
     1 <0>         1 GROUP             0       ****    0 ROOT    
@<TRIPOS>MOLECULE
A49_2_3FRJ
63   66    1
SMALL
USER_CHARGES


@<TRIPOS>ATOM
      1 C1         51.7210   28.8952   39.3208 C.3       1 <0>        -0.1800 
      2 C2         51.5565   24.5618   39.7662 C.ar      1 <0>        -0.1150 
      3 C3         52.9546   24.7123   41.7591 C.ar      1 <0>        -0.1150 
      4 C4         51.5046   25.9667   39.6956 C.ar      1 <0>        -0.1150 
      5 C5         52.9138   26.1129   41.6790 C.ar      1 <0>        -0.1150 
      6 C6         51.9135   19.3687   40.5437 C.3       1 <0>        -0.1200 
      7 C7         52.6660   19.3692   39.2418 C.3       1 <0>        -0.1200 
      8 C8         55.5859   21.6451   39.6580 C.3       1 <0>        -0.1200 
      9 C9         53.8688   22.2692   37.9281 C.3       1 <0>        -0.1200 
     10 C10        59.9046   23.0859   35.8787 C.3       1 <0>        -0.1200 
     11 C11        59.8222   22.9546   37.3704 C.3       1 <0>        -0.1200 
     12 C12        56.6541   22.3955   38.8400 C.3       1 <0>         0.1500 
     13 C13        54.9707   22.9823   37.1307 C.3       1 <0>         0.1500 
     14 C14        57.3497   23.0004   36.5199 C.3       1 <0>         0.1500 
     15 C15        52.2673   23.9338   40.8091 C.ar      1 <0>        -0.1150 
     16 C16        52.1725   26.7571   40.6623 C.ar      1 <0>        -0.1150 
     17 C17        53.1533   20.2395   40.3837 C.3       1 <0>        -0.0149 
     18 C18        54.1956   22.2749   39.4322 C.3       1 <0>         0.0100 
     19 C19        52.2333   22.4482   40.9666 C.2       1 <0>         0.6150 
     20 C20        58.7305   20.8268   36.4255 C.2       1 <0>         0.5000 
     21 C21        58.7361   22.3378   36.5238 C.3       1 <0>         0.0000 
     22 C22        52.0714   28.2845   40.6855 C.3       1 <0>         0.3800 
     23 C23        51.0261   28.7228   41.7513 C.3       1 <0>         0.6171 
     24 N1         59.8931   20.2177   36.1839 N.am      1 <0>        -0.7600 
     25 N2         56.3105   22.3918   37.3919 N.4       1 <0>        -0.1000 
     26 N3         53.0937   21.6817   40.2387 N.am      1 <0>        -0.1151 
     27 O1         53.3438   28.8435   40.9699 O.3       1 <0>        -0.6936 
     28 O2         51.4186   22.0068   41.7702 O.2       1 <0>        -0.5000 
     29 O3         57.7141   20.1560   36.5704 O.2       1 <0>        -0.5000 
     30 F1         50.9299   30.0509   41.8341 F         1 <0>        -0.2057 
     31 F2         51.3152   28.2295   42.9547 F         1 <0>        -0.2057 
     32 F3         49.8239   28.2590   41.4053 F         1 <0>        -0.2057 
     33 H1         50.7240   28.6185   38.9795 H         1 <0>         0.0600 
     34 H2         51.7475   29.9851   39.3540 H         1 <0>         0.0600 
     35 H3         52.4388   28.5759   38.5697 H         1 <0>         0.0600 
     36 H4         51.0161   23.9680   39.0428 H         1 <0>         0.1150 
     37 H5         53.4915   24.2408   42.5706 H         1 <0>         0.1150 
     38 H6         50.9192   26.4158   38.9073 H         1 <0>         0.1150 
     39 H7         53.4225   26.6960   42.4347 H         1 <0>         0.1150 
     40 H8         51.9824   18.4481   41.1252 H         1 <0>         0.0600 
     41 H9         50.9254   19.8255   40.5295 H         1 <0>         0.0600 
     42 H10        52.1625   19.8385   38.3990 H         1 <0>         0.0600 
     43 H11        53.2503   18.4842   38.9981 H         1 <0>         0.0600 
     44 H12        55.8464   21.6750   40.7155 H         1 <0>         0.0600 
     45 H13        55.5896   20.5952   39.3621 H         1 <0>         0.0600 
     46 H14        53.7706   21.2490   37.5591 H         1 <0>         0.0600 
     47 H15        52.9115   22.7569   37.7433 H         1 <0>         0.0600 
     48 H16        60.6956   22.5351   35.3772 H         1 <0>         0.0600 
     49 H17        59.7230   24.0746   35.4621 H         1 <0>         0.0600 
     50 H18        59.5542   23.8366   37.9431 H         1 <0>         0.0600 
     51 H19        60.5230   22.2907   37.8650 H         1 <0>         0.0600 
     52 H20        56.7539   23.4212   39.1974 H         1 <0>         0.0600 
     53 H21        57.6197   21.9161   39.0003 H         1 <0>         0.0600 
     54 H22        54.9825   24.0448   37.3799 H         1 <0>         0.0600 
     55 H23        54.7389   22.9164   36.0683 H         1 <0>         0.0600 
     56 H24        56.9848   23.0149   35.4901 H         1 <0>         0.0600 
     57 H25        57.4668   24.0429   36.8080 H         1 <0>         0.0600 
     58 H26        54.0046   19.8682   40.9529 H         1 <0>         0.0600 
     59 H27        54.3454   23.3171   39.7104 H         1 <0>         0.0600 
     60 H28        59.9062   19.2112   36.0910 H         1 <0>         0.3800 
     61 H29        60.7399   20.7554   36.0792 H         1 <0>         0.3800 
     62 H30        56.2697   21.4184   37.1100 H         1 <0>         0.2900 
     63 H31        53.9442   28.5375   40.3075 H         1 <0>         0.4286 
@<TRIPOS>BOND
     1    1   22 1    
     2    1   33 1    
     3    1   34 1    
     4    1   35 1    
     5    2    4 ar   
     6    2   15 ar   
     7    2   36 1    
     8    3    5 ar   
     9    3   15 ar   
    10    3   37 1    
    11    4   16 ar   
    12    4   38 1    
    13    5   16 ar   
    14    5   39 1    
    15    6    7 1    
    16    6   17 1    
    17    6   40 1    
    18    6   41 1    
    19    7   17 1    
    20    7   42 1    
    21    7   43 1    
    22    8   12 1    
    23    8   18 1    
    24    8   44 1    
    25    8   45 1    
    26    9   13 1    
    27    9   18 1    
    28    9   46 1    
    29    9   47 1    
    30   10   11 1    
    31   10   21 1    
    32   10   48 1    
    33   10   49 1    
    34   11   21 1    
    35   11   50 1    
    36   11   51 1    
    37   12   25 1    
    38   12   52 1    
    39   12   53 1    
    40   13   25 1    
    41   13   54 1    
    42   13   55 1    
    43   14   21 1    
    44   14   25 1    
    45   14   56 1    
    46   14   57 1    
    47   15   19 1    
    48   16   22 1    
    49   17   26 1    
    50   17   58 1    
    51   18   26 1    
    52   18   59 1    
    53   19   26 am   BACKBONE|DICT|INTERRES
    54   19   28 2    
    55   20   21 1    
    56   20   24 am   BACKBONE|DICT|INTERRES
    57   20   29 2    
    58   22   23 1    
    59   22   27 1    
    60   23   30 1    
    61   23   31 1    
    62   23   32 1    
    63   24   60 1    
    64   24   61 1    
    65   25   62 1    
    66   27   63 1    
@<TRIPOS>SUBSTRUCTURE
     1 <0>         1 GROUP             0       ****    0 ROOT    
@<TRIPOS>MOLECULE
A49_2_3FRJ
63   66    1
SMALL
USER_CHARGES


@<TRIPOS>ATOM
      1 C1         51.1235   28.9225   41.6427 C.3       1 <0>        -0.1800 
      2 C2         52.5114   24.7355   41.7468 C.ar      1 <0>        -0.1150 
      3 C3         51.1767   24.4665   39.7236 C.ar      1 <0>        -0.1150 
      4 C4         52.4399   26.1335   41.6135 C.ar      1 <0>        -0.1150 
      5 C5         51.1063   25.8646   39.5908 C.ar      1 <0>        -0.1150 
      6 C6         51.7236   19.3362   40.5719 C.3       1 <0>        -0.1200 
      7 C7         52.5428   19.3356   39.3136 C.3       1 <0>        -0.1200 
      8 C8         55.3163   21.6598   39.7394 C.3       1 <0>        -0.1200 
      9 C9         53.6084   22.3395   38.0176 C.3       1 <0>        -0.1200 
     10 C10        59.6887   23.0310   36.1189 C.3       1 <0>        -0.1200 
     11 C11        59.5180   22.7907   37.5909 C.3       1 <0>        -0.1200 
     12 C12        56.3868   22.4169   38.9355 C.3       1 <0>         0.1500 
     13 C13        54.7183   23.0567   37.2362 C.3       1 <0>         0.1500 
     14 C14        57.1023   23.0104   36.6165 C.3       1 <0>         0.1500 
     15 C15        51.8787   23.9002   40.8043 C.ar      1 <0>        -0.1150 
     16 C16        51.7313   26.7123   40.5370 C.ar      1 <0>        -0.1150 
     17 C17        52.9344   20.2434   40.4659 C.3       1 <0>        -0.0149 
     18 C18        53.9268   22.3024   39.5248 C.3       1 <0>         0.0100 
     19 C19        51.9046   22.4179   40.9893 C.2       1 <0>         0.6150 
     20 C20        58.3812   20.7976   36.4622 C.2       1 <0>         0.5000 
     21 C21        58.4573   22.2945   36.6405 C.3       1 <0>         0.0000 
     22 C22        51.6799   28.2329   40.3814 C.3       1 <0>         0.3800 
     23 C23        53.0605   28.7900   39.9532 C.3       1 <0>         0.6171 
     24 N1         59.5215   20.1535   36.1992 N.am      1 <0>        -0.7600 
     25 N2         56.0435   22.4333   37.4860 N.4       1 <0>        -0.1000 
     26 N3         52.8210   21.6786   40.2995 N.am      1 <0>        -0.1151 
     27 O1         50.7772   28.6226   39.3705 O.3       1 <0>        -0.6936 
     28 O2         51.0774   21.9530   41.7702 O.2       1 <0>        -0.5000 
     29 O3         57.3286   20.1746   36.5704 O.2       1 <0>        -0.5000 
     30 F1         53.9248   28.7882   40.9690 F         1 <0>        -0.2057 
     31 F2         52.9235   30.0426   39.5169 F         1 <0>        -0.2057 
     32 F3         53.5752   28.0536   38.9701 F         1 <0>        -0.2057 
     33 H1         51.7233   28.7133   42.5267 H         1 <0>         0.0600 
     34 H2         51.0969   30.0058   41.5231 H         1 <0>         0.0600 
     35 H3         50.1086   28.5866   41.8618 H         1 <0>         0.0600 
     36 H4         53.0571   24.3060   42.5724 H         1 <0>         0.1150 
     37 H5         50.6784   23.8331   39.0037 H         1 <0>         0.1150 
     38 H6         52.9369   26.7562   42.3422 H         1 <0>         0.1150 
     39 H7         50.5666   26.2712   38.7485 H         1 <0>         0.1150 
     40 H8         51.7960   18.4576   41.2094 H         1 <0>         0.0600 
     41 H9         50.7313   19.7753   40.5215 H         1 <0>         0.0600 
     42 H10        52.0672   19.7675   38.4353 H         1 <0>         0.0600 
     43 H11        53.1638   18.4618   39.1231 H         1 <0>         0.0600 
     44 H12        55.5804   21.6692   40.7982 H         1 <0>         0.0600 
     45 H13        55.3224   20.6146   39.4236 H         1 <0>         0.0600 
     46 H14        53.5040   21.3295   37.6234 H         1 <0>         0.0600 
     47 H15        52.6564   22.8388   37.8374 H         1 <0>         0.0600 
     48 H16        60.4816   22.4850   35.6134 H         1 <0>         0.0600 
     49 H17        59.5548   24.0526   35.7702 H         1 <0>         0.0600 
     50 H18        59.2682   23.6433   38.2166 H         1 <0>         0.0600 
     51 H19        60.1364   22.0419   38.0762 H         1 <0>         0.0600 
     52 H20        56.4937   23.4367   39.3081 H         1 <0>         0.0600 
     53 H21        57.3470   21.9260   39.0924 H         1 <0>         0.0600 
     54 H22        54.7473   24.1135   37.5066 H         1 <0>         0.0600 
     55 H23        54.4878   23.0144   36.1713 H         1 <0>         0.0600 
     56 H24        56.7496   23.0319   35.5849 H         1 <0>         0.0600 
     57 H25        57.2591   24.0433   36.9150 H         1 <0>         0.0600 
     58 H26        53.7649   19.9158   41.0885 H         1 <0>         0.0600 
     59 H27        54.0678   23.3349   39.8436 H         1 <0>         0.0600 
     60 H28        59.4962   19.1543   36.0505 H         1 <0>         0.3800 
     61 H29        60.3882   20.6624   36.1164 H         1 <0>         0.3800 
     62 H30        55.9765   21.4632   37.1969 H         1 <0>         0.2900 
     63 H31        50.9296   29.5357   39.1746 H         1 <0>         0.4286 
@<TRIPOS>BOND
     1    1   22 1    
     2    1   33 1    
     3    1   34 1    
     4    1   35 1    
     5    2    4 ar   
     6    2   15 ar   
     7    2   36 1    
     8    3    5 ar   
     9    3   15 ar   
    10    3   37 1    
    11    4   16 ar   
    12    4   38 1    
    13    5   16 ar   
    14    5   39 1    
    15    6    7 1    
    16    6   17 1    
    17    6   40 1    
    18    6   41 1    
    19    7   17 1    
    20    7   42 1    
    21    7   43 1    
    22    8   12 1    
    23    8   18 1    
    24    8   44 1    
    25    8   45 1    
    26    9   13 1    
    27    9   18 1    
    28    9   46 1    
    29    9   47 1    
    30   10   11 1    
    31   10   21 1    
    32   10   48 1    
    33   10   49 1    
    34   11   21 1    
    35   11   50 1    
    36   11   51 1    
    37   12   25 1    
    38   12   52 1    
    39   12   53 1    
    40   13   25 1    
    41   13   54 1    
    42   13   55 1    
    43   14   21 1    
    44   14   25 1    
    45   14   56 1    
    46   14   57 1    
    47   15   19 1    
    48   16   22 1    
    49   17   26 1    
    50   17   58 1    
    51   18   26 1    
    52   18   59 1    
    53   19   26 am   BACKBONE|DICT|INTERRES
    54   19   28 2    
    55   20   21 1    
    56   20   24 am   BACKBONE|DICT|INTERRES
    57   20   29 2    
    58   22   23 1    
    59   22   27 1    
    60   23   30 1    
    61   23   31 1    
    62   23   32 1    
    63   24   60 1    
    64   24   61 1    
    65   25   62 1    
    66   27   63 1    
@<TRIPOS>SUBSTRUCTURE
     1 <0>         1 GROUP             0       ****    0 ROOT    
@<TRIPOS>MOLECULE
A49_2_3FRJ
63   66    1
SMALL
USER_CHARGES


@<TRIPOS>ATOM
      1 C1         51.6690   28.8753   39.3123 C.3       1 <0>        -0.1800 
      2 C2         51.4468   24.5490   39.6610 C.ar      1 <0>        -0.1150 
      3 C3         52.7336   24.6251   41.7314 C.ar      1 <0>        -0.1150 
      4 C4         51.4210   25.9558   39.6241 C.ar      1 <0>        -0.1150 
      5 C5         52.7205   26.0303   41.6830 C.ar      1 <0>        -0.1150 
      6 C6         51.9293   19.3088   40.4452 C.3       1 <0>        -0.1200 
      7 C7         52.7443   19.3157   39.1826 C.3       1 <0>        -0.1200 
      8 C8         55.5284   21.6604   39.6588 C.3       1 <0>        -0.1200 
      9 C9         53.8419   22.3188   37.9115 C.3       1 <0>        -0.1200 
     10 C10        59.8859   23.0108   35.8827 C.3       1 <0>        -0.1200 
     11 C11        59.8391   22.8554   37.3706 C.3       1 <0>        -0.1200 
     12 C12        56.6085   22.4199   38.8708 C.3       1 <0>         0.1500 
     13 C13        54.9592   23.0305   37.1356 C.3       1 <0>         0.1500 
     14 C14        57.3528   23.0281   36.5706 C.3       1 <0>         0.1500 
     15 C15        52.0957   23.8799   40.7184 C.ar      1 <0>        -0.1150 
     16 C16        52.0512   26.7133   40.6414 C.ar      1 <0>        -0.1150 
     17 C17        53.1356   20.2242   40.3322 C.3       1 <0>        -0.0149 
     18 C18        54.1384   22.2926   39.4233 C.3       1 <0>         0.0100 
     19 C19        52.0550   22.3857   40.8073 C.2       1 <0>         0.6150 
     20 C20        58.6314   20.7937   36.4306 C.2       1 <0>         0.5000 
     21 C21        58.7044   22.3005   36.5437 C.3       1 <0>         0.0000 
     22 C22        51.9929   28.2459   40.6766 C.3       1 <0>         0.3800 
     23 C23        50.9596   28.7165   41.7416 C.3       1 <0>         0.6171 
     24 N1         59.7692   20.1403   36.1871 N.am      1 <0>        -0.7600 
     25 N2         56.2897   22.4279   37.4170 N.4       1 <0>        -0.1000 
     26 N3         53.0209   21.6595   40.1733 N.am      1 <0>        -0.1151 
     27 O1         53.2756   28.7708   40.9704 O.3       1 <0>        -0.6936 
     28 O2         51.1442   21.8974   41.4701 O.2       1 <0>        -0.5000 
     29 O3         57.5858   20.1665   36.5704 O.2       1 <0>        -0.5000 
     30 F1         50.9230   30.0459   41.8338 F         1 <0>        -0.2057 
     31 F2         51.2211   28.2055   42.9443 F         1 <0>        -0.2057 
     32 F3         49.7411   28.3054   41.3846 F         1 <0>        -0.2057 
     33 H1         50.6617   28.6344   38.9709 H         1 <0>         0.0600 
     34 H2         51.7295   29.9630   39.3529 H         1 <0>         0.0600 
     35 H3         52.3758   28.5355   38.5585 H         1 <0>         0.0600 
     36 H4         50.9406   23.9835   38.8897 H         1 <0>         0.1150 
     37 H5         53.2144   24.1280   42.5635 H         1 <0>         0.1150 
     38 H6         50.8894   26.4310   38.8142 H         1 <0>         0.1150 
     39 H7         53.1999   26.5861   42.4774 H         1 <0>         0.1150 
     40 H8         52.0169   18.4439   41.0954 H         1 <0>         0.0600 
     41 H9         50.9234   19.7053   40.3486 H         1 <0>         0.0600 
     42 H10        52.2634   19.7485   38.3072 H         1 <0>         0.0600 
     43 H11        53.3613   18.4438   38.9864 H         1 <0>         0.0600 
     44 H12        55.7753   21.6720   40.7217 H         1 <0>         0.0600 
     45 H13        55.5410   20.6166   39.3422 H         1 <0>         0.0600 
     46 H14        53.7436   21.3044   37.5259 H         1 <0>         0.0600 
     47 H15        52.8912   22.8155   37.7169 H         1 <0>         0.0600 
     48 H16        60.6553   22.4439   35.3706 H         1 <0>         0.0600 
     49 H17        59.7239   24.0082   35.4824 H         1 <0>         0.0600 
     50 H18        59.6265   23.7317   37.9740 H         1 <0>         0.0600 
     51 H19        60.5235   22.1500   37.8307 H         1 <0>         0.0600 
     52 H20        56.7012   23.4409   39.2400 H         1 <0>         0.0600 
     53 H21        57.5725   21.9409   39.0403 H         1 <0>         0.0600 
     54 H22        54.9702   24.0914   37.3820 H         1 <0>         0.0600 
     55 H23        54.7455   22.9648   36.0682 H         1 <0>         0.0600 
     56 H24        56.9862   23.1047   35.5479 H         1 <0>         0.0600 
     57 H25        57.5166   24.0477   36.9085 H         1 <0>         0.0600 
     58 H26        53.9713   19.8965   40.9488 H         1 <0>         0.0600 
     59 H27        54.2682   23.3270   39.7401 H         1 <0>         0.0600 
     60 H28        59.7449   19.1351   36.0863 H         1 <0>         0.3800 
     61 H29        60.6372   20.6450   36.0901 H         1 <0>         0.3800 
     62 H30        56.2464   21.4570   37.1276 H         1 <0>         0.2900 
     63 H31        53.8739   28.4573   40.3082 H         1 <0>         0.4286 
@<TRIPOS>BOND
     1    1   22 1    
     2    1   33 1    
     3    1   34 1    
     4    1   35 1    
     5    2    4 ar   
     6    2   15 ar   
     7    2   36 1    
     8    3    5 ar   
     9    3   15 ar   
    10    3   37 1    
    11    4   16 ar   
    12    4   38 1    
    13    5   16 ar   
    14    5   39 1    
    15    6    7 1    
    16    6   17 1    
    17    6   40 1    
    18    6   41 1    
    19    7   17 1    
    20    7   42 1    
    21    7   43 1    
    22    8   12 1    
    23    8   18 1    
    24    8   44 1    
    25    8   45 1    
    26    9   13 1    
    27    9   18 1    
    28    9   46 1    
    29    9   47 1    
    30   10   11 1    
    31   10   21 1    
    32   10   48 1    
    33   10   49 1    
    34   11   21 1    
    35   11   50 1    
    36   11   51 1    
    37   12   25 1    
    38   12   52 1    
    39   12   53 1    
    40   13   25 1    
    41   13   54 1    
    42   13   55 1    
    43   14   21 1    
    44   14   25 1    
    45   14   56 1    
    46   14   57 1    
    47   15   19 1    
    48   16   22 1    
    49   17   26 1    
    50   17   58 1    
    51   18   26 1    
    52   18   59 1    
    53   19   26 am   BACKBONE|DICT|INTERRES
    54   19   28 2    
    55   20   21 1    
    56   20   24 am   BACKBONE|DICT|INTERRES
    57   20   29 2    
    58   22   23 1    
    59   22   27 1    
    60   23   30 1    
    61   23   31 1    
    62   23   32 1    
    63   24   60 1    
    64   24   61 1    
    65   25   62 1    
    66   27   63 1    
@<TRIPOS>SUBSTRUCTURE
     1 <0>         1 GROUP             0       ****    0 ROOT    
@<TRIPOS>MOLECULE
A49_2_3FRJ
63   66    1
SMALL
USER_CHARGES


@<TRIPOS>ATOM
      1 C1         51.5442   29.1730   39.3702 C.3       1 <0>        -0.1800 
      2 C2         50.8594   24.8832   39.4035 C.ar      1 <0>        -0.1150 
      3 C3         52.6240   24.6277   41.0619 C.ar      1 <0>        -0.1150 
      4 C4         50.9236   26.2769   39.5468 C.ar      1 <0>        -0.1150 
      5 C5         52.6992   26.0290   41.1910 C.ar      1 <0>        -0.1150 
      6 C6         53.0888   19.2433   39.0277 C.3       1 <0>        -0.1200 
      7 C7         52.2173   19.4158   40.2428 C.3       1 <0>        -0.1200 
      8 C8         54.9460   21.8868   40.2666 C.3       1 <0>        -0.1200 
      9 C9         54.4098   21.9924   37.7696 C.3       1 <0>        -0.1200 
     10 C10        59.7188   20.7911   36.9123 C.3       1 <0>        -0.1200 
     11 C11        58.4207   20.8047   36.1705 C.3       1 <0>        -0.1200 
     12 C12        56.3387   22.4282   39.9226 C.3       1 <0>         0.1500 
     13 C13        55.8307   22.5538   37.5294 C.3       1 <0>         0.1500 
     14 C14        58.2153   22.3203   38.3718 C.3       1 <0>         0.1500 
     15 C15        51.7121   24.0498   40.1508 C.ar      1 <0>        -0.1150 
     16 C16        51.8460   26.8700   40.4370 C.ar      1 <0>        -0.1150 
     17 C17        52.1786   20.4503   39.1390 C.3       1 <0>        -0.0149 
     18 C18        53.9121   22.2993   39.1983 C.3       1 <0>         0.0100 
     19 C19        51.5442   22.5659   40.0185 C.2       1 <0>         0.6150 
     20 C20        59.3385   23.2275   36.2338 C.2       1 <0>         0.5000 
     21 C21        58.8173   22.0258   36.9922 C.3       1 <0>         0.0000 
     22 C22        51.8666   28.3869   40.6528 C.3       1 <0>         0.3800 
     23 C23        50.8916   28.7631   41.8007 C.3       1 <0>         0.6171 
     24 N1         58.9198   24.4437   36.5828 N.am      1 <0>        -0.7600 
     25 N2         56.7675   22.0298   38.5588 N.4       1 <0>        -0.1000 
     26 N3         52.5494   21.7947   39.5184 N.am      1 <0>        -0.1151 
     27 O1         53.1664   28.8481   40.9704 O.3       1 <0>        -0.6936 
     28 O2         50.4374   22.1041   40.3029 O.2       1 <0>        -0.5000 
     29 O3         60.1236   23.1225   35.3018 O.2       1 <0>        -0.5000 
     30 F1         51.1842   28.0950   42.9165 F         1 <0>        -0.2057 
     31 F2         49.6429   28.4519   41.4489 F         1 <0>        -0.2057 
     32 F3         50.9237   30.0719   42.0516 F         1 <0>        -0.2057 
     33 H1         50.5241   29.0134   39.0252 H         1 <0>         0.0600 
     34 H2         51.6541   30.2478   39.5189 H         1 <0>         0.0600 
     35 H3         52.2205   28.8831   38.5705 H         1 <0>         0.0600 
     36 H4         50.1325   24.4520   38.7298 H         1 <0>         0.1150 
     37 H5         53.2539   24.0069   41.6800 H         1 <0>         0.1150 
     38 H6         50.2248   26.8731   38.9832 H         1 <0>         0.1150 
     39 H7         53.3907   26.4537   41.9036 H         1 <0>         0.1150 
     40 H8         52.7948   18.4685   38.3218 H         1 <0>         0.0600 
     41 H9         54.1565   19.3353   39.1699 H         1 <0>         0.0600 
     42 H10        52.7143   19.6783   41.1759 H         1 <0>         0.0600 
     43 H11        51.3254   18.8073   40.3537 H         1 <0>         0.0600 
     44 H12        54.6456   22.2648   41.2422 H         1 <0>         0.0600 
     45 H13        55.0080   20.8087   40.3844 H         1 <0>         0.0600 
     46 H14        54.4262   20.9247   37.5685 H         1 <0>         0.0600 
     47 H15        53.7214   22.4215   37.0389 H         1 <0>         0.0600 
     48 H16        60.6297   20.8317   36.3166 H         1 <0>         0.0600 
     49 H17        59.7694   20.1249   37.7697 H         1 <0>         0.0600 
     50 H18        57.6181   20.1722   36.5451 H         1 <0>         0.0600 
     51 H19        58.4968   20.8432   35.0863 H         1 <0>         0.0600 
     52 H20        56.3448   23.5165   39.9917 H         1 <0>         0.0600 
     53 H21        57.0553   22.0582   40.6576 H         1 <0>         0.0600 
     54 H22        55.8210   23.6429   37.5554 H         1 <0>         0.0600 
     55 H23        56.1525   22.2708   36.5273 H         1 <0>         0.0600 
     56 H24        58.4376   23.3301   38.7150 H         1 <0>         0.0600 
     57 H25        58.7486   21.6770   39.0678 H         1 <0>         0.0600 
     58 H26        51.3244   20.3973   38.4659 H         1 <0>         0.0600 
     59 H27        53.9083   23.3864   39.2038 H         1 <0>         0.0600 
     60 H28        59.2732   25.2332   36.0607 H         1 <0>         0.3800 
     61 H29        58.2705   24.5908   37.3382 H         1 <0>         0.3800 
     62 H30        56.6829   21.0246   38.5133 H         1 <0>         0.2900 
     63 H31        53.0974   29.7840   41.1119 H         1 <0>         0.4286 
@<TRIPOS>BOND
     1    1   22 1    
     2    1   33 1    
     3    1   34 1    
     4    1   35 1    
     5    2    4 ar   
     6    2   15 ar   
     7    2   36 1    
     8    3    5 ar   
     9    3   15 ar   
    10    3   37 1    
    11    4   16 ar   
    12    4   38 1    
    13    5   16 ar   
    14    5   39 1    
    15    6    7 1    
    16    6   17 1    
    17    6   40 1    
    18    6   41 1    
    19    7   17 1    
    20    7   42 1    
    21    7   43 1    
    22    8   12 1    
    23    8   18 1    
    24    8   44 1    
    25    8   45 1    
    26    9   13 1    
    27    9   18 1    
    28    9   46 1    
    29    9   47 1    
    30   10   11 1    
    31   10   21 1    
    32   10   48 1    
    33   10   49 1    
    34   11   21 1    
    35   11   50 1    
    36   11   51 1    
    37   12   25 1    
    38   12   52 1    
    39   12   53 1    
    40   13   25 1    
    41   13   54 1    
    42   13   55 1    
    43   14   21 1    
    44   14   25 1    
    45   14   56 1    
    46   14   57 1    
    47   15   19 1    
    48   16   22 1    
    49   17   26 1    
    50   17   58 1    
    51   18   26 1    
    52   18   59 1    
    53   19   26 am   BACKBONE|DICT|INTERRES
    54   19   28 2    
    55   20   21 1    
    56   20   24 am   BACKBONE|DICT|INTERRES
    57   20   29 2    
    58   22   23 1    
    59   22   27 1    
    60   23   30 1    
    61   23   31 1    
    62   23   32 1    
    63   24   60 1    
    64   24   61 1    
    65   25   62 1    
    66   27   63 1    
@<TRIPOS>SUBSTRUCTURE
     1 <0>         1 GROUP             0       ****    0 ROOT    
@<TRIPOS>MOLECULE
A49_2_3FRJ
63   66    1
SMALL
USER_CHARGES


@<TRIPOS>ATOM
      1 C1         51.5922   28.9314   39.3092 C.3       1 <0>        -0.1800 
      2 C2         52.0110   24.6191   39.6212 C.ar      1 <0>        -0.1150 
      3 C3         53.1491   24.8543   41.7623 C.ar      1 <0>        -0.1150 
      4 C4         51.8062   26.0120   39.5789 C.ar      1 <0>        -0.1150 
      5 C5         52.9691   26.2465   41.7043 C.ar      1 <0>        -0.1150 
      6 C6         52.0910   19.6397   40.0106 C.3       1 <0>        -0.1200 
      7 C7         52.7729   19.7387   38.6711 C.3       1 <0>        -0.1200 
      8 C8         55.9455   22.0429   40.1796 C.3       1 <0>        -0.1200 
      9 C9         54.9444   22.0650   37.8805 C.3       1 <0>        -0.1200 
     10 C10        59.8399   23.2434   35.3907 C.3       1 <0>        -0.1200 
     11 C11        60.8875   22.8316   36.3614 C.3       1 <0>        -0.1200 
     12 C12        57.1670   22.7892   39.6357 C.3       1 <0>         0.1500 
     13 C13        56.1952   22.8109   37.3665 C.3       1 <0>         0.1500 
     14 C14        58.6415   23.1739   37.7223 C.3       1 <0>         0.1500 
     15 C15        52.6611   24.0327   40.7272 C.ar      1 <0>        -0.1150 
     16 C16        52.2672   26.8417   40.6313 C.ar      1 <0>        -0.1150 
     17 C17        53.4037   20.3900   39.8845 C.3       1 <0>        -0.0149 
     18 C18        54.6989   22.4097   39.3601 C.3       1 <0>         0.0100 
     19 C19        52.7418   22.5424   40.8593 C.2       1 <0>         0.6150 
     20 C20        59.2001   20.9840   36.4849 C.2       1 <0>         0.5000 
     21 C21        59.4327   22.4576   36.6200 C.3       1 <0>         0.0000 
     22 C22        51.9938   28.3516   40.6704 C.3       1 <0>         0.3800 
     23 C23        50.9138   28.6995   41.7338 C.3       1 <0>         0.6171 
     24 N1         58.1372   20.6362   35.7705 N.am      1 <0>        -0.7600 
     25 N2         57.3982   22.5050   38.1979 N.4       1 <0>        -0.1000 
     26 N3         53.4684   21.8340   39.9514 N.am      1 <0>        -0.1151 
     27 O1         53.1757   29.0661   40.9700 O.3       1 <0>        -0.6936 
     28 O2         52.0963   22.0301   41.7698 O.2       1 <0>        -0.5000 
     29 O3         59.9425   20.1389   36.9712 O.2       1 <0>        -0.5000 
     30 F1         51.2086   28.1986   42.9325 F         1 <0>        -0.2057 
     31 F2         49.7352   28.1978   41.3599 F         1 <0>        -0.2057 
     32 F3         50.7796   30.0233   41.8443 F         1 <0>        -0.2057 
     33 H1         50.6314   28.5466   38.9715 H         1 <0>         0.0600 
     34 H2         51.5034   30.0179   39.3427 H         1 <0>         0.0600 
     35 H3         52.3480   28.6891   38.5671 H         1 <0>         0.0600 
     36 H4         51.6220   23.9984   38.8271 H         1 <0>         0.1150 
     37 H5         53.6464   24.4161   42.6149 H         1 <0>         0.1150 
     38 H6         51.2656   26.4168   38.7375 H         1 <0>         0.1150 
     39 H7         53.3367   26.8582   42.5156 H         1 <0>         0.1150 
     40 H8         52.1129   18.6766   40.5169 H         1 <0>         0.0600 
     41 H9         51.1616   20.1957   40.1237 H         1 <0>         0.0600 
     42 H10        52.3092   20.3846   37.9282 H         1 <0>         0.0600 
     43 H11        53.2456   18.8406   38.2799 H         1 <0>         0.0600 
     44 H12        55.7914   22.3000   41.2287 H         1 <0>         0.0600 
     45 H13        56.1387   20.9703   40.1489 H         1 <0>         0.0600 
     46 H14        55.0876   20.9914   37.7556 H         1 <0>         0.0600 
     47 H15        54.0767   22.3394   37.2796 H         1 <0>         0.0600 
     48 H16        59.7444   22.7419   34.4327 H         1 <0>         0.0600 
     49 H17        59.6803   24.3183   35.3705 H         1 <0>         0.0600 
     50 H18        61.3237   23.6139   36.9673 H         1 <0>         0.0600 
     51 H19        61.5880   22.0622   36.0387 H         1 <0>         0.0600 
     52 H20        57.0306   23.8607   39.7701 H         1 <0>         0.0600 
     53 H21        58.0479   22.5037   40.2113 H         1 <0>         0.0600 
     54 H22        56.0052   23.8844   37.3703 H         1 <0>         0.0600 
     55 H23        56.3769   22.5460   36.3260 H         1 <0>         0.0600 
     56 H24        58.4036   24.1893   37.4014 H         1 <0>         0.0600 
     57 H25        59.3238   23.2989   38.5596 H         1 <0>         0.0600 
     58 H26        54.2412   19.8589   40.3332 H         1 <0>         0.0600 
     59 H27        54.6374   23.4973   39.3769 H         1 <0>         0.0600 
     60 H28        58.0296   19.6627   35.5084 H         1 <0>         0.3800 
     61 H29        57.5771   21.3339   35.3060 H         1 <0>         0.3800 
     62 H30        57.5607   21.5091   38.1309 H         1 <0>         0.2900 
     63 H31        52.9266   29.9738   41.1034 H         1 <0>         0.4286 
@<TRIPOS>BOND
     1    1   22 1    
     2    1   33 1    
     3    1   34 1    
     4    1   35 1    
     5    2    4 ar   
     6    2   15 ar   
     7    2   36 1    
     8    3    5 ar   
     9    3   15 ar   
    10    3   37 1    
    11    4   16 ar   
    12    4   38 1    
    13    5   16 ar   
    14    5   39 1    
    15    6    7 1    
    16    6   17 1    
    17    6   40 1    
    18    6   41 1    
    19    7   17 1    
    20    7   42 1    
    21    7   43 1    
    22    8   12 1    
    23    8   18 1    
    24    8   44 1    
    25    8   45 1    
    26    9   13 1    
    27    9   18 1    
    28    9   46 1    
    29    9   47 1    
    30   10   11 1    
    31   10   21 1    
    32   10   48 1    
    33   10   49 1    
    34   11   21 1    
    35   11   50 1    
    36   11   51 1    
    37   12   25 1    
    38   12   52 1    
    39   12   53 1    
    40   13   25 1    
    41   13   54 1    
    42   13   55 1    
    43   14   21 1    
    44   14   25 1    
    45   14   56 1    
    46   14   57 1    
    47   15   19 1    
    48   16   22 1    
    49   17   26 1    
    50   17   58 1    
    51   18   26 1    
    52   18   59 1    
    53   19   26 am   BACKBONE|DICT|INTERRES
    54   19   28 2    
    55   20   21 1    
    56   20   24 am   BACKBONE|DICT|INTERRES
    57   20   29 2    
    58   22   23 1    
    59   22   27 1    
    60   23   30 1    
    61   23   31 1    
    62   23   32 1    
    63   24   60 1    
    64   24   61 1    
    65   25   62 1    
    66   27   63 1    
@<TRIPOS>SUBSTRUCTURE
     1 <0>         1 GROUP             0       ****    0 ROOT    
@<TRIPOS>MOLECULE
A49_2_3FRJ
63   66    1
SMALL
USER_CHARGES


@<TRIPOS>ATOM
      1 C1         52.1730   28.5131   39.2497 C.3       1 <0>        -0.1800 
      2 C2         52.9266   24.2359   41.4747 C.ar      1 <0>        -0.1150 
      3 C3         51.3067   24.2397   39.6508 C.ar      1 <0>        -0.1150 
      4 C4         52.8928   25.6424   41.5065 C.ar      1 <0>        -0.1150 
      5 C5         51.2745   25.6463   39.6835 C.ar      1 <0>        -0.1150 
      6 C6         52.1371   19.0301   39.7536 C.3       1 <0>        -0.1200 
      7 C7         52.8945   19.3104   38.4909 C.3       1 <0>        -0.1200 
      8 C8         55.6623   21.8998   40.2278 C.3       1 <0>        -0.1200 
      9 C9         54.7208   21.8297   37.8889 C.3       1 <0>        -0.1200 
     10 C10        59.7240   23.0377   35.5455 C.3       1 <0>        -0.1200 
     11 C11        60.7006   22.5710   36.5704 C.3       1 <0>        -0.1200 
     12 C12        56.8684   22.6733   39.6697 C.3       1 <0>         0.1500 
     13 C13        55.9255   22.6470   37.3997 C.3       1 <0>         0.1500 
     14 C14        58.3641   23.0090   37.7391 C.3       1 <0>         0.1500 
     15 C15        52.1406   23.5335   40.5400 C.ar      1 <0>        -0.1150 
     16 C16        52.0741   26.3646   40.6040 C.ar      1 <0>        -0.1150 
     17 C17        53.3241   19.9774   39.7814 C.3       1 <0>        -0.0149 
     18 C18        54.4077   22.1353   39.3633 C.3       1 <0>         0.0100 
     19 C19        52.1678   22.0384   40.5048 C.2       1 <0>         0.6150 
     20 C20        58.8553   20.7948   36.4707 C.2       1 <0>         0.5000 
     21 C21        59.2243   22.2311   36.7262 C.3       1 <0>         0.0000 
     22 C22        52.0183   27.8926   40.6502 C.3       1 <0>         0.3800 
     23 C23        50.7273   28.3771   41.3606 C.3       1 <0>         0.6171 
     24 N1         59.8200   19.8864   36.6381 N.am      1 <0>        -0.7600 
     25 N2         57.1216   22.3593   38.2391 N.4       1 <0>        -0.1000 
     26 N3         53.2102   21.4180   39.8771 N.am      1 <0>        -0.1151 
     27 O1         53.1134   28.4276   41.3662 O.3       1 <0>        -0.6936 
     28 O2         51.2299   21.4537   41.0411 O.2       1 <0>        -0.5000 
     29 O3         57.7218   20.4434   36.1750 O.2       1 <0>        -0.5000 
     30 F1         50.6283   27.8156   42.5662 F         1 <0>        -0.2057 
     31 F2         49.6482   28.0433   40.6506 F         1 <0>        -0.2057 
     32 F3         50.7327   29.6990   41.5067 F         1 <0>        -0.2057 
     33 H1         51.3564   28.2537   38.5774 H         1 <0>         0.0600 
     34 H2         52.2032   29.6015   39.3018 H         1 <0>         0.0600 
     35 H3         53.1000   28.1856   38.7786 H         1 <0>         0.0600 
     36 H4         53.5552   23.7015   42.1729 H         1 <0>         0.1150 
     37 H5         50.6906   23.7081   38.9451 H         1 <0>         0.1150 
     38 H6         53.5027   26.1517   42.2395 H         1 <0>         0.1150 
     39 H7         50.6265   26.1656   38.9984 H         1 <0>         0.1150 
     40 H8         52.2635   18.0402   40.1709 H         1 <0>         0.0600 
     41 H9         51.1224   19.4093   39.7870 H         1 <0>         0.0600 
     42 H10        52.3889   19.9241   37.7533 H         1 <0>         0.0600 
     43 H11        53.5278   18.5189   38.0944 H         1 <0>         0.0600 
     44 H12        55.4705   22.2065   41.2566 H         1 <0>         0.0600 
     45 H13        55.9242   20.8457   40.2600 H         1 <0>         0.0600 
     46 H14        54.9685   20.7767   37.7742 H         1 <0>         0.0600 
     47 H15        53.8510   22.0292   37.2615 H         1 <0>         0.0600 
     48 H16        59.7286   22.5592   34.5705 H         1 <0>         0.0600 
     49 H17        59.5603   24.1113   35.5251 H         1 <0>         0.0600 
     50 H18        61.0868   23.2435   37.3281 H         1 <0>         0.0600 
     51 H19        61.4222   21.8435   36.2034 H         1 <0>         0.0600 
     52 H20        56.6963   23.7429   39.7704 H         1 <0>         0.0600 
     53 H21        57.7495   22.4399   40.2662 H         1 <0>         0.0600 
     54 H22        55.6913   23.7087   37.4261 H         1 <0>         0.0600 
     55 H23        56.1267   22.4116   36.3542 H         1 <0>         0.0600 
     56 H24        58.1035   23.9851   37.3241 H         1 <0>         0.0600 
     57 H25        59.0218   23.2387   38.5705 H         1 <0>         0.0600 
     58 H26        54.1794   19.5417   40.2915 H         1 <0>         0.0600 
     59 H27        54.2450   23.2092   39.3663 H         1 <0>         0.0600 
     60 H28        59.6204   18.9137   36.4506 H         1 <0>         0.3800 
     61 H29        60.7529   20.1791   36.8868 H         1 <0>         0.3800 
     62 H30        57.2729   21.3620   38.1768 H         1 <0>         0.2900 
     63 H31        52.9229   28.3645   42.2970 H         1 <0>         0.4286 
@<TRIPOS>BOND
     1    1   22 1    
     2    1   33 1    
     3    1   34 1    
     4    1   35 1    
     5    2    4 ar   
     6    2   15 ar   
     7    2   36 1    
     8    3    5 ar   
     9    3   15 ar   
    10    3   37 1    
    11    4   16 ar   
    12    4   38 1    
    13    5   16 ar   
    14    5   39 1    
    15    6    7 1    
    16    6   17 1    
    17    6   40 1    
    18    6   41 1    
    19    7   17 1    
    20    7   42 1    
    21    7   43 1    
    22    8   12 1    
    23    8   18 1    
    24    8   44 1    
    25    8   45 1    
    26    9   13 1    
    27    9   18 1    
    28    9   46 1    
    29    9   47 1    
    30   10   11 1    
    31   10   21 1    
    32   10   48 1    
    33   10   49 1    
    34   11   21 1    
    35   11   50 1    
    36   11   51 1    
    37   12   25 1    
    38   12   52 1    
    39   12   53 1    
    40   13   25 1    
    41   13   54 1    
    42   13   55 1    
    43   14   21 1    
    44   14   25 1    
    45   14   56 1    
    46   14   57 1    
    47   15   19 1    
    48   16   22 1    
    49   17   26 1    
    50   17   58 1    
    51   18   26 1    
    52   18   59 1    
    53   19   26 am   BACKBONE|DICT|INTERRES
    54   19   28 2    
    55   20   21 1    
    56   20   24 am   BACKBONE|DICT|INTERRES
    57   20   29 2    
    58   22   23 1    
    59   22   27 1    
    60   23   30 1    
    61   23   31 1    
    62   23   32 1    
    63   24   60 1    
    64   24   61 1    
    65   25   62 1    
    66   27   63 1    
@<TRIPOS>SUBSTRUCTURE
     1 <0>         1 GROUP             0       ****    0 ROOT    
@<TRIPOS>MOLECULE
A49_2_3FRJ
63   66    1
SMALL
USER_CHARGES


@<TRIPOS>ATOM
      1 C1         52.2401   28.5602   39.2350 C.3       1 <0>        -0.1800 
      2 C2         52.7443   24.3027   41.7093 C.ar      1 <0>        -0.1150 
      3 C3         51.8033   24.2445   39.4607 C.ar      1 <0>        -0.1150 
      4 C4         52.6560   25.7030   41.7116 C.ar      1 <0>        -0.1150 
      5 C5         51.7067   25.6495   39.4655 C.ar      1 <0>        -0.1150 
      6 C6         52.1245   19.1718   39.6533 C.3       1 <0>        -0.1200 
      7 C7         52.9343   19.3526   38.3969 C.3       1 <0>        -0.1200 
      8 C8         55.7574   21.9025   40.1533 C.3       1 <0>        -0.1200 
      9 C9         54.8327   21.9048   37.7948 C.3       1 <0>        -0.1200 
     10 C10        59.7464   22.9537   35.4337 C.3       1 <0>        -0.1200 
     11 C11        60.7765   22.5049   36.4120 C.3       1 <0>        -0.1200 
     12 C12        56.9698   22.6879   39.6349 C.3       1 <0>         0.1500 
     13 C13        56.0654   22.7115   37.3430 C.3       1 <0>         0.1500 
     14 C14        58.5215   22.9764   37.7286 C.3       1 <0>         0.1500 
     15 C15        52.3261   23.5704   40.5842 C.ar      1 <0>        -0.1150 
     16 C16        52.1435   26.3937   40.5888 C.ar      1 <0>        -0.1150 
     17 C17        53.3758   20.0287   39.6790 C.3       1 <0>        -0.0149 
     18 C18        54.5175   22.1743   39.2792 C.3       1 <0>         0.0100 
     19 C19        52.4152   22.0800   40.6088 C.2       1 <0>         0.6150 
     20 C20        58.8816   20.7568   36.4357 C.2       1 <0>         0.5000 
     21 C21        59.3059   22.1860   36.6638 C.3       1 <0>         0.0000 
     22 C22        52.0663   27.9214   40.6243 C.3       1 <0>         0.3800 
     23 C23        50.7545   28.3964   41.2991 C.3       1 <0>         0.6171 
     24 N1         59.8205   19.8195   36.5753 N.am      1 <0>        -0.7600 
     25 N2         57.2372   22.3888   38.2045 N.4       1 <0>        -0.1000 
     26 N3         53.3098   21.4691   39.7847 N.am      1 <0>        -0.1151 
     27 O1         53.1444   28.4432   41.3694 O.3       1 <0>        -0.6936 
     28 O2         51.6565   21.4850   41.3703 O.2       1 <0>        -0.5000 
     29 O3         57.7260   20.4433   36.1715 O.2       1 <0>        -0.5000 
     30 F1         49.6985   28.0022   40.5861 F         1 <0>        -0.2057 
     31 F2         50.7281   29.7270   41.3832 F         1 <0>        -0.2057 
     32 F3         50.6524   27.8855   42.5265 F         1 <0>        -0.2057 
     33 H1         51.4081   28.3351   38.5704 H         1 <0>         0.0600 
     34 H2         52.2937   29.6471   39.3033 H         1 <0>         0.0600 
     35 H3         53.1567   28.2194   38.7529 H         1 <0>         0.0600 
     36 H4         53.1431   23.7898   42.5704 H         1 <0>         0.1150 
     37 H5         51.4651   23.6856   38.5981 H         1 <0>         0.1150 
     38 H6         52.9833   26.2385   42.5919 H         1 <0>         0.1150 
     39 H7         51.2913   26.1368   38.5973 H         1 <0>         0.1150 
     40 H8         52.1716   18.2019   40.1433 H         1 <0>         0.0600 
     41 H9         51.1496   19.6519   39.6752 H         1 <0>         0.0600 
     42 H10        52.5215   19.9825   37.6134 H         1 <0>         0.0600 
     43 H11        53.5166   18.5025   38.0487 H         1 <0>         0.0600 
     44 H12        55.5557   22.1775   41.1893 H         1 <0>         0.0600 
     45 H13        56.0086   20.8428   40.1586 H         1 <0>         0.0600 
     46 H14        55.0391   20.8465   37.6364 H         1 <0>         0.0600 
     47 H15        53.9732   22.1573   37.1714 H         1 <0>         0.0600 
     48 H16        59.7235   22.4448   34.4772 H         1 <0>         0.0600 
     49 H17        59.5909   24.0274   35.3873 H         1 <0>         0.0600 
     50 H18        61.2354   23.2436   37.0575 H         1 <0>         0.0600 
     51 H19        61.4633   21.7384   36.0613 H         1 <0>         0.0600 
     52 H20        56.7999   23.7548   39.7665 H         1 <0>         0.0600 
     53 H21        57.8423   22.4414   40.2391 H         1 <0>         0.0600 
     54 H22        55.8502   23.7792   37.3705 H         1 <0>         0.0600 
     55 H23        56.2825   22.4860   36.2987 H         1 <0>         0.0600 
     56 H24        58.3367   23.9928   37.3759 H         1 <0>         0.0600 
     57 H25        59.1978   23.0913   38.5705 H         1 <0>         0.0600 
     58 H26        54.1993   19.5607   40.2128 H         1 <0>         0.0600 
     59 H27        54.3744   23.2534   39.3179 H         1 <0>         0.0600 
     60 H28        59.5804   18.8524   36.4029 H         1 <0>         0.3800 
     61 H29        60.7702   20.0783   36.7948 H         1 <0>         0.3800 
     62 H30        57.3522   21.3859   38.1369 H         1 <0>         0.2900 
     63 H31        52.9231   28.3849   42.2945 H         1 <0>         0.4286 
@<TRIPOS>BOND
     1    1   22 1    
     2    1   33 1    
     3    1   34 1    
     4    1   35 1    
     5    2    4 ar   
     6    2   15 ar   
     7    2   36 1    
     8    3    5 ar   
     9    3   15 ar   
    10    3   37 1    
    11    4   16 ar   
    12    4   38 1    
    13    5   16 ar   
    14    5   39 1    
    15    6    7 1    
    16    6   17 1    
    17    6   40 1    
    18    6   41 1    
    19    7   17 1    
    20    7   42 1    
    21    7   43 1    
    22    8   12 1    
    23    8   18 1    
    24    8   44 1    
    25    8   45 1    
    26    9   13 1    
    27    9   18 1    
    28    9   46 1    
    29    9   47 1    
    30   10   11 1    
    31   10   21 1    
    32   10   48 1    
    33   10   49 1    
    34   11   21 1    
    35   11   50 1    
    36   11   51 1    
    37   12   25 1    
    38   12   52 1    
    39   12   53 1    
    40   13   25 1    
    41   13   54 1    
    42   13   55 1    
    43   14   21 1    
    44   14   25 1    
    45   14   56 1    
    46   14   57 1    
    47   15   19 1    
    48   16   22 1    
    49   17   26 1    
    50   17   58 1    
    51   18   26 1    
    52   18   59 1    
    53   19   26 am   BACKBONE|DICT|INTERRES
    54   19   28 2    
    55   20   21 1    
    56   20   24 am   BACKBONE|DICT|INTERRES
    57   20   29 2    
    58   22   23 1    
    59   22   27 1    
    60   23   30 1    
    61   23   31 1    
    62   23   32 1    
    63   24   60 1    
    64   24   61 1    
    65   25   62 1    
    66   27   63 1    
@<TRIPOS>SUBSTRUCTURE
     1 <0>         1 GROUP             0       ****    0 ROOT    
@<TRIPOS>MOLECULE
A49_2_3FRJ
63   66    1
SMALL
USER_CHARGES


@<TRIPOS>ATOM
      1 C1         52.2401   28.6944   39.2445 C.3       1 <0>        -0.1800 
      2 C2         52.8595   24.1319   41.0249 C.ar      1 <0>        -0.1150 
      3 C3         51.4247   24.4238   39.0763 C.ar      1 <0>        -0.1150 
      4 C4         52.8757   25.5231   41.2191 C.ar      1 <0>        -0.1150 
      5 C5         51.4402   25.8163   39.2734 C.ar      1 <0>        -0.1150 
      6 C6         52.7333   19.0765   40.1768 C.3       1 <0>        -0.1200 
      7 C7         52.5237   19.1385   38.6823 C.3       1 <0>        -0.1200 
      8 C8         55.7820   21.9641   40.0170 C.3       1 <0>        -0.1200 
      9 C9         54.9704   22.0422   37.5930 C.3       1 <0>        -0.1200 
     10 C10        59.8221   23.0542   35.3901 C.3       1 <0>        -0.1200 
     11 C11        60.8856   22.5832   36.3194 C.3       1 <0>        -0.1200 
     12 C12        57.0357   22.7277   39.5609 C.3       1 <0>         0.1500 
     13 C13        56.2270   22.8482   37.2445 C.3       1 <0>         0.1500 
     14 C14        58.6615   23.0208   37.7150 C.3       1 <0>         0.1500 
     15 C15        52.1566   23.5796   39.9341 C.ar      1 <0>        -0.1150 
     16 C16        52.1809   26.3830   40.3362 C.ar      1 <0>        -0.1150 
     17 C17        53.5433   20.0446   39.3393 C.3       1 <0>        -0.0149 
     18 C18        54.5879   22.2387   39.0712 C.3       1 <0>         0.0100 
     19 C19        52.1627   22.1007   39.6965 C.2       1 <0>         0.6150 
     20 C20        59.0146   20.8190   36.4128 C.2       1 <0>         0.5000 
     21 C21        59.4257   22.2574   36.6194 C.3       1 <0>         0.0000 
     22 C22        52.2123   27.8975   40.5607 C.3       1 <0>         0.3800 
     23 C23        51.0232   28.3321   41.4581 C.3       1 <0>         0.6171 
     24 N1         59.9634   19.8946   36.5700 N.am      1 <0>        -0.7600 
     25 N2         57.3496   22.4572   38.1348 N.4       1 <0>        -0.1000 
     26 N3         53.3567   21.4860   39.4337 N.am      1 <0>        -0.1151 
     27 O1         53.4134   28.2774   41.2019 O.3       1 <0>        -0.6936 
     28 O2         51.0786   21.5246   39.7706 O.2       1 <0>        -0.5000 
     29 O3         57.8597   20.4847   36.1703 O.2       1 <0>        -0.5000 
     30 F1         51.0526   29.6431   41.6967 F         1 <0>        -0.2057 
     31 F2         51.0587   27.6806   42.6214 F         1 <0>        -0.2057 
     32 F3         49.8677   28.0492   40.8534 F         1 <0>        -0.2057 
     33 H1         51.3200   28.5905   38.6724 H         1 <0>         0.0600 
     34 H2         52.3691   29.7610   39.4325 H         1 <0>         0.0600 
     35 H3         53.0638   28.3753   38.6042 H         1 <0>         0.0600 
     36 H4         53.4014   23.4926   41.7076 H         1 <0>         0.1150 
     37 H5         50.8624   24.0077   38.2526 H         1 <0>         0.1150 
     38 H6         53.4287   25.9176   42.0580 H         1 <0>         0.1150 
     39 H7         50.8750   26.4370   38.5949 H         1 <0>         0.1150 
     40 H8         53.2985   18.2403   40.5830 H         1 <0>         0.0600 
     41 H9         51.9360   19.4411   40.8203 H         1 <0>         0.0600 
     42 H10        51.6191   19.5941   38.2931 H         1 <0>         0.0600 
     43 H11        52.9026   18.3064   38.0923 H         1 <0>         0.0600 
     44 H12        55.5244   22.2565   41.0353 H         1 <0>         0.0600 
     45 H13        56.0336   20.9060   40.0669 H         1 <0>         0.0600 
     46 H14        55.1575   20.9927   37.3708 H         1 <0>         0.0600 
     47 H15        54.1443   22.3515   36.9506 H         1 <0>         0.0600 
     48 H16        59.7237   22.5660   34.4265 H         1 <0>         0.0600 
     49 H17        59.7116   24.1355   35.3732 H         1 <0>         0.0600 
     50 H18        61.3629   23.3051   36.9699 H         1 <0>         0.0600 
     51 H19        61.5593   21.8257   35.9261 H         1 <0>         0.0600 
     52 H20        56.8931   23.7960   39.7127 H         1 <0>         0.0600 
     53 H21        57.8805   22.4419   40.1872 H         1 <0>         0.0600 
     54 H22        56.0241   23.9132   37.3512 H         1 <0>         0.0600 
     55 H23        56.4878   22.6862   36.1980 H         1 <0>         0.0600 
     56 H24        58.5274   24.0631   37.4216 H         1 <0>         0.0600 
     57 H25        59.3235   23.0521   38.5704 H         1 <0>         0.0600 
     58 H26        54.5548   19.7064   39.1486 H         1 <0>         0.0600 
     59 H27        54.4330   23.3126   39.1389 H         1 <0>         0.0600 
     60 H28        59.7282   18.9230   36.4186 H         1 <0>         0.3800 
     61 H29        60.9121   20.1668   36.7792 H         1 <0>         0.3800 
     62 H30        57.4388   21.4542   38.0392 H         1 <0>         0.2900 
     63 H31        53.3216   28.0401   42.1144 H         1 <0>         0.4286 
@<TRIPOS>BOND
     1    1   22 1    
     2    1   33 1    
     3    1   34 1    
     4    1   35 1    
     5    2    4 ar   
     6    2   15 ar   
     7    2   36 1    
     8    3    5 ar   
     9    3   15 ar   
    10    3   37 1    
    11    4   16 ar   
    12    4   38 1    
    13    5   16 ar   
    14    5   39 1    
    15    6    7 1    
    16    6   17 1    
    17    6   40 1    
    18    6   41 1    
    19    7   17 1    
    20    7   42 1    
    21    7   43 1    
    22    8   12 1    
    23    8   18 1    
    24    8   44 1    
    25    8   45 1    
    26    9   13 1    
    27    9   18 1    
    28    9   46 1    
    29    9   47 1    
    30   10   11 1    
    31   10   21 1    
    32   10   48 1    
    33   10   49 1    
    34   11   21 1    
    35   11   50 1    
    36   11   51 1    
    37   12   25 1    
    38   12   52 1    
    39   12   53 1    
    40   13   25 1    
    41   13   54 1    
    42   13   55 1    
    43   14   21 1    
    44   14   25 1    
    45   14   56 1    
    46   14   57 1    
    47   15   19 1    
    48   16   22 1    
    49   17   26 1    
    50   17   58 1    
    51   18   26 1    
    52   18   59 1    
    53   19   26 am   BACKBONE|DICT|INTERRES
    54   19   28 2    
    55   20   21 1    
    56   20   24 am   BACKBONE|DICT|INTERRES
    57   20   29 2    
    58   22   23 1    
    59   22   27 1    
    60   23   30 1    
    61   23   31 1    
    62   23   32 1    
    63   24   60 1    
    64   24   61 1    
    65   25   62 1    
    66   27   63 1    
@<TRIPOS>SUBSTRUCTURE
     1 <0>         1 GROUP             0       ****    0 ROOT    
@<TRIPOS>MOLECULE
A49_2_3FRJ
63   66    1
SMALL
USER_CHARGES


@<TRIPOS>ATOM
      1 C1         47.3087   25.3629   43.3288 C.3       1 <0>        -0.1800 
      2 C2         50.2714   22.0290   41.4755 C.ar      1 <0>        -0.1150 
      3 C3         51.1638   24.2791   41.6160 C.ar      1 <0>        -0.1150 
      4 C4         48.9712   22.5310   41.6538 C.ar      1 <0>        -0.1150 
      5 C5         49.8640   24.7849   41.7930 C.ar      1 <0>        -0.1150 
      6 C6         52.8843   19.3506   39.1505 C.3       1 <0>        -0.1200 
      7 C7         52.1455   19.3775   40.4572 C.3       1 <0>        -0.1200 
      8 C8         55.5967   21.6843   39.6608 C.3       1 <0>        -0.1200 
      9 C9         53.9258   22.1773   37.8303 C.3       1 <0>        -0.1200 
     10 C10        59.9556   23.0053   35.8883 C.3       1 <0>        -0.1200 
     11 C11        59.8883   22.8158   37.3731 C.3       1 <0>        -0.1200 
     12 C12        56.6666   22.4392   38.8566 C.3       1 <0>         0.1500 
     13 C13        55.0201   22.9367   37.0710 C.3       1 <0>         0.1500 
     14 C14        57.4214   23.0232   36.5642 C.3       1 <0>         0.1500 
     15 C15        51.3878   22.8956   41.4532 C.ar      1 <0>        -0.1150 
     16 C16        48.7519   23.9157   41.8307 C.ar      1 <0>        -0.1150 
     17 C17        52.2946   20.6565   39.6487 C.3       1 <0>        -0.0149 
     18 C18        54.2031   22.2518   39.3430 C.3       1 <0>         0.0100 
     19 C19        52.8108   22.4222   41.2931 C.2       1 <0>         0.6150 
     20 C20        58.6923   20.7784   36.4132 C.2       1 <0>         0.5000 
     21 C21        58.7671   22.2865   36.5218 C.3       1 <0>         0.0000 
     22 C22        47.3445   24.4718   42.0700 C.3       1 <0>         0.3800 
     23 C23        46.8331   25.2352   40.8195 C.3       1 <0>         0.6171 
     24 N1         59.8306   20.1242   36.1709 N.am      1 <0>        -0.7600 
     25 N2         56.3659   22.4012   37.3992 N.4       1 <0>        -0.1000 
     26 N3         53.1335   21.6900   40.1982 N.am      1 <0>        -0.1151 
     27 O1         46.4168   23.4373   42.3505 O.3       1 <0>        -0.6936 
     28 O2         53.6858   22.9363   41.9937 O.2       1 <0>        -0.5000 
     29 O3         57.6504   20.1487   36.5702 O.2       1 <0>        -0.5000 
     30 F1         46.8425   24.4450   39.7434 F         1 <0>        -0.2057 
     31 F2         47.6049   26.2934   40.5702 F         1 <0>        -0.2057 
     32 F3         45.5951   25.6847   41.0174 F         1 <0>        -0.2057 
     33 H1         47.9293   26.2520   43.2179 H         1 <0>         0.0600 
     34 H2         46.2949   25.7078   43.5409 H         1 <0>         0.0600 
     35 H3         47.6626   24.8220   44.2079 H         1 <0>         0.0600 
     36 H4         50.3800   20.9636   41.3713 H         1 <0>         0.1150 
     37 H5         51.9974   24.9667   41.6120 H         1 <0>         0.1150 
     38 H6         48.1472   21.8317   41.6569 H         1 <0>         0.1150 
     39 H7         49.7362   25.8491   41.9204 H         1 <0>         0.1150 
     40 H8         52.3923   18.8700   38.3066 H         1 <0>         0.0600 
     41 H9         53.9596   19.2058   39.1981 H         1 <0>         0.0600 
     42 H10        52.7408   19.2690   41.3636 H         1 <0>         0.0600 
     43 H11        51.1630   18.9129   40.4984 H         1 <0>         0.0600 
     44 H12        55.8109   21.7752   40.7258 H         1 <0>         0.0600 
     45 H13        55.6469   20.6219   39.4264 H         1 <0>         0.0600 
     46 H14        53.9028   21.1468   37.4740 H         1 <0>         0.0600 
     47 H15        52.9523   22.6118   37.5990 H         1 <0>         0.0600 
     48 H16        60.7274   22.4455   35.3705 H         1 <0>         0.0600 
     49 H17        59.7892   24.0078   35.5013 H         1 <0>         0.0600 
     50 H18        59.6462   23.6528   38.0185 H         1 <0>         0.0600 
     51 H19        60.5234   22.0766   37.8461 H         1 <0>         0.0600 
     52 H20        56.7270   23.4738   39.2004 H         1 <0>         0.0600 
     53 H21        57.6412   21.9887   39.0530 H         1 <0>         0.0600 
     54 H22        54.9758   24.0010   37.3098 H         1 <0>         0.0600 
     55 H23        54.8358   22.8446   35.9996 H         1 <0>         0.0600 
     56 H24        57.0637   23.1218   35.5379 H         1 <0>         0.0600 
     57 H25        57.5850   24.0424   36.9135 H         1 <0>         0.0600 
     58 H26        51.4134   20.9977   39.1077 H         1 <0>         0.0600 
     59 H27        54.2604   23.3252   39.5471 H         1 <0>         0.0600 
     60 H28        59.8071   19.1173   36.0803 H         1 <0>         0.3800 
     61 H29        60.6951   20.6317   36.0590 H         1 <0>         0.3800 
     62 H30        56.3701   21.4207   37.1332 H         1 <0>         0.2900 
     63 H31        46.6843   23.0066   43.1473 H         1 <0>         0.4286 
@<TRIPOS>BOND
     1    1   22 1    
     2    1   33 1    
     3    1   34 1    
     4    1   35 1    
     5    2    4 ar   
     6    2   15 ar   
     7    2   36 1    
     8    3    5 ar   
     9    3   15 ar   
    10    3   37 1    
    11    4   16 ar   
    12    4   38 1    
    13    5   16 ar   
    14    5   39 1    
    15    6    7 1    
    16    6   17 1    
    17    6   40 1    
    18    6   41 1    
    19    7   17 1    
    20    7   42 1    
    21    7   43 1    
    22    8   12 1    
    23    8   18 1    
    24    8   44 1    
    25    8   45 1    
    26    9   13 1    
    27    9   18 1    
    28    9   46 1    
    29    9   47 1    
    30   10   11 1    
    31   10   21 1    
    32   10   48 1    
    33   10   49 1    
    34   11   21 1    
    35   11   50 1    
    36   11   51 1    
    37   12   25 1    
    38   12   52 1    
    39   12   53 1    
    40   13   25 1    
    41   13   54 1    
    42   13   55 1    
    43   14   21 1    
    44   14   25 1    
    45   14   56 1    
    46   14   57 1    
    47   15   19 1    
    48   16   22 1    
    49   17   26 1    
    50   17   58 1    
    51   18   26 1    
    52   18   59 1    
    53   19   26 am   BACKBONE|DICT|INTERRES
    54   19   28 2    
    55   20   21 1    
    56   20   24 am   BACKBONE|DICT|INTERRES
    57   20   29 2    
    58   22   23 1    
    59   22   27 1    
    60   23   30 1    
    61   23   31 1    
    62   23   32 1    
    63   24   60 1    
    64   24   61 1    
    65   25   62 1    
    66   27   63 1    
@<TRIPOS>SUBSTRUCTURE
     1 <0>         1 GROUP             0       ****    0 ROOT    
@<TRIPOS>MOLECULE
A49_2_3FRJ
63   66    1
SMALL
USER_CHARGES


@<TRIPOS>ATOM
      1 C1         51.8551   28.8947   39.2496 C.3       1 <0>        -0.1800 
      2 C2         53.1503   24.7787   41.7713 C.ar      1 <0>        -0.1150 
      3 C3         52.0200   24.5642   39.6253 C.ar      1 <0>        -0.1150 
      4 C4         53.0069   26.1747   41.7067 C.ar      1 <0>        -0.1150 
      5 C5         51.8565   25.9625   39.5722 C.ar      1 <0>        -0.1150 
      6 C6         52.1050   19.5957   39.9052 C.3       1 <0>        -0.1200 
      7 C7         52.8152   19.7116   38.5795 C.3       1 <0>        -0.1200 
      8 C8         55.9272   22.0363   40.1701 C.3       1 <0>        -0.1200 
      9 C9         54.9377   22.0653   37.8494 C.3       1 <0>        -0.1200 
     10 C10        59.8278   23.0718   35.3874 C.3       1 <0>        -0.1200 
     11 C11        60.8889   22.6062   36.3212 C.3       1 <0>        -0.1200 
     12 C12        57.1592   22.7543   39.6252 C.3       1 <0>         0.1500 
     13 C13        56.1956   22.8044   37.3512 C.3       1 <0>         0.1500 
     14 C14        58.6573   23.0504   37.7101 C.3       1 <0>         0.1500 
     15 C15        52.6532   23.9660   40.7346 C.ar      1 <0>        -0.1150 
     16 C16        52.3419   26.7835   40.6192 C.ar      1 <0>        -0.1150 
     17 C17        53.4150   20.3509   39.8141 C.3       1 <0>        -0.0149 
     18 C18        54.6879   22.3934   39.3332 C.3       1 <0>         0.0100 
     19 C19        52.7489   22.4737   40.8475 C.2       1 <0>         0.6150 
     20 C20        59.0171   20.8411   36.4164 C.2       1 <0>         0.5000 
     21 C21        59.4299   22.2788   36.6236 C.3       1 <0>         0.0000 
     22 C22        52.1414   28.3033   40.6316 C.3       1 <0>         0.3800 
     23 C23        51.0212   28.7062   41.6335 C.3       1 <0>         0.6171 
     24 N1         59.9650   19.9155   36.5718 N.am      1 <0>        -0.7600 
     25 N2         57.3794   22.4567   38.1882 N.4       1 <0>        -0.1000 
     26 N3         53.4632   21.7934   39.9103 N.am      1 <0>        -0.1151 
     27 O1         53.3465   28.9598   40.9703 O.3       1 <0>        -0.6936 
     28 O2         52.1442   21.9338   41.7699 O.2       1 <0>        -0.5000 
     29 O3         57.8627   20.5105   36.1710 O.2       1 <0>        -0.5000 
     30 F1         51.2374   28.2051   42.8491 F         1 <0>        -0.2057 
     31 F2         49.8487   28.2396   41.2020 F         1 <0>        -0.2057 
     32 F3         50.9235   30.0344   41.7260 F         1 <0>        -0.2057 
     33 H1         50.9211   28.5338   38.8348 H         1 <0>         0.0600 
     34 H2         51.7882   29.9828   39.2784 H         1 <0>         0.0600 
     35 H3         52.6615   28.6335   38.5700 H         1 <0>         0.0600 
     36 H4         53.6389   24.3306   42.6238 H         1 <0>         0.1150 
     37 H5         51.6283   23.9511   38.8253 H         1 <0>         0.1150 
     38 H6         53.3870   26.7786   42.5171 H         1 <0>         0.1150 
     39 H7         51.3418   26.3798   38.7227 H         1 <0>         0.1150 
     40 H8         52.1200   18.6248   40.3962 H         1 <0>         0.0600 
     41 H9         51.1759   20.1528   40.0104 H         1 <0>         0.0600 
     42 H10        52.3687   20.3629   37.8312 H         1 <0>         0.0600 
     43 H11        53.3035   18.8204   38.1891 H         1 <0>         0.0600 
     44 H12        55.7680   22.3139   41.2145 H         1 <0>         0.0600 
     45 H13        56.1156   20.9627   40.1614 H         1 <0>         0.0600 
     46 H14        55.0768   20.9933   37.7084 H         1 <0>         0.0600 
     47 H15        54.0754   22.3524   37.2465 H         1 <0>         0.0600 
     48 H16        59.7235   22.5826   34.4256 H         1 <0>         0.0600 
     49 H17        59.7180   24.1549   35.3704 H         1 <0>         0.0600 
     50 H18        61.3618   23.3358   36.9669 H         1 <0>         0.0600 
     51 H19        61.5632   21.8443   35.9373 H         1 <0>         0.0600 
     52 H20        57.0505   23.8287   39.7635 H         1 <0>         0.0600 
     53 H21        58.0309   22.4437   40.2013 H         1 <0>         0.0600 
     54 H22        56.0236   23.8790   37.3701 H         1 <0>         0.0600 
     55 H23        56.3794   22.5518   36.3081 H         1 <0>         0.0600 
     56 H24        58.4722   24.0722   37.3772 H         1 <0>         0.0600 
     57 H25        59.3236   23.1478   38.5648 H         1 <0>         0.0600 
     58 H26        54.2445   19.8200   40.2763 H         1 <0>         0.0600 
     59 H27        54.6164   23.4799   39.3528 H         1 <0>         0.0600 
     60 H28        59.7299   18.9438   36.4218 H         1 <0>         0.3800 
     61 H29        60.9128   20.1847   36.7829 H         1 <0>         0.3800 
     62 H30        57.4852   21.4547   38.1068 H         1 <0>         0.2900 
     63 H31        53.1579   29.8900   41.0195 H         1 <0>         0.4286 
@<TRIPOS>BOND
     1    1   22 1    
     2    1   33 1    
     3    1   34 1    
     4    1   35 1    
     5    2    4 ar   
     6    2   15 ar   
     7    2   36 1    
     8    3    5 ar   
     9    3   15 ar   
    10    3   37 1    
    11    4   16 ar   
    12    4   38 1    
    13    5   16 ar   
    14    5   39 1    
    15    6    7 1    
    16    6   17 1    
    17    6   40 1    
    18    6   41 1    
    19    7   17 1    
    20    7   42 1    
    21    7   43 1    
    22    8   12 1    
    23    8   18 1    
    24    8   44 1    
    25    8   45 1    
    26    9   13 1    
    27    9   18 1    
    28    9   46 1    
    29    9   47 1    
    30   10   11 1    
    31   10   21 1    
    32   10   48 1    
    33   10   49 1    
    34   11   21 1    
    35   11   50 1    
    36   11   51 1    
    37   12   25 1    
    38   12   52 1    
    39   12   53 1    
    40   13   25 1    
    41   13   54 1    
    42   13   55 1    
    43   14   21 1    
    44   14   25 1    
    45   14   56 1    
    46   14   57 1    
    47   15   19 1    
    48   16   22 1    
    49   17   26 1    
    50   17   58 1    
    51   18   26 1    
    52   18   59 1    
    53   19   26 am   BACKBONE|DICT|INTERRES
    54   19   28 2    
    55   20   21 1    
    56   20   24 am   BACKBONE|DICT|INTERRES
    57   20   29 2    
    58   22   23 1    
    59   22   27 1    
    60   23   30 1    
    61   23   31 1    
    62   23   32 1    
    63   24   60 1    
    64   24   61 1    
    65   25   62 1    
    66   27   63 1    
@<TRIPOS>SUBSTRUCTURE
     1 <0>         1 GROUP             0       ****    0 ROOT    
@<TRIPOS>MOLECULE
A49_2_3FRJ
63   66    1
SMALL
USER_CHARGES


@<TRIPOS>ATOM
      1 C1         51.5297   28.8560   39.3573 C.3       1 <0>        -0.1800 
      2 C2         51.9122   24.5341   39.6683 C.ar      1 <0>        -0.1150 
      3 C3         53.1522   24.7622   41.7534 C.ar      1 <0>        -0.1150 
      4 C4         51.7159   25.9283   39.6332 C.ar      1 <0>        -0.1150 
      5 C5         52.9784   26.1566   41.7017 C.ar      1 <0>        -0.1150 
      6 C6         52.1228   19.5933   39.8333 C.3       1 <0>        -0.1200 
      7 C7         52.8890   19.7111   38.5411 C.3       1 <0>        -0.1200 
      8 C8         55.9241   22.0497   40.1282 C.3       1 <0>        -0.1200 
      9 C9         54.8999   22.1739   37.8207 C.3       1 <0>        -0.1200 
     10 C10        59.8068   23.2190   35.3718 C.3       1 <0>        -0.1200 
     11 C11        60.8340   22.6265   36.2680 C.3       1 <0>        -0.1200 
     12 C12        57.1378   22.8175   39.6020 C.3       1 <0>         0.1500 
     13 C13        56.1491   22.9403   37.3354 C.3       1 <0>         0.1500 
     14 C14        58.6260   23.1443   37.6691 C.3       1 <0>         0.1500 
     15 C15        52.6120   23.9460   40.7427 C.ar      1 <0>        -0.1150 
     16 C16        52.2348   26.7547   40.6601 C.ar      1 <0>        -0.1150 
     17 C17        53.4291   20.3607   39.7942 C.3       1 <0>        -0.0149 
     18 C18        54.6691   22.4320   39.3211 C.3       1 <0>         0.0100 
     19 C19        52.7407   22.4576   40.8447 C.2       1 <0>         0.6150 
     20 C20        58.9087   20.9388   36.3584 C.2       1 <0>         0.5000 
     21 C21        59.3582   22.3716   36.5600 C.3       1 <0>         0.0000 
     22 C22        51.9830   28.2703   40.7032 C.3       1 <0>         0.3800 
     23 C23        50.9559   28.6239   41.8130 C.3       1 <0>         0.6171 
     24 N1         59.8367   19.9938   36.5225 N.am      1 <0>        -0.7600 
     25 N2         57.3430   22.5684   38.1546 N.4       1 <0>        -0.1000 
     26 N3         53.4551   21.8032   39.8919 N.am      1 <0>        -0.1151 
     27 O1         53.1849   28.9679   40.9704 O.3       1 <0>        -0.6936 
     28 O2         52.1580   21.8960   41.7701 O.2       1 <0>        -0.5000 
     29 O3         57.7389   20.6268   36.1558 O.2       1 <0>        -0.5000 
     30 F1         51.3186   28.1320   42.9960 F         1 <0>        -0.2057 
     31 F2         49.7597   28.1195   41.5023 F         1 <0>        -0.2057 
     32 F3         50.8253   29.9489   41.9195 F         1 <0>        -0.2057 
     33 H1         50.5533   28.4786   39.0559 H         1 <0>         0.0600 
     34 H2         51.4438   29.9415   39.4005 H         1 <0>         0.0600 
     35 H3         52.2451   28.6185   38.5705 H         1 <0>         0.0600 
     36 H4         51.4952   23.9142   38.8892 H         1 <0>         0.1150 
     37 H5         53.6917   24.3205   42.5747 H         1 <0>         0.1150 
     38 H6         51.1434   26.3363   38.8160 H         1 <0>         0.1150 
     39 H7         53.3918   26.7662   42.4927 H         1 <0>         0.1150 
     40 H8         52.1243   18.6244   40.3281 H         1 <0>         0.0600 
     41 H9         51.1851   20.1450   39.8973 H         1 <0>         0.0600 
     42 H10        52.4652   20.3579   37.7754 H         1 <0>         0.0600 
     43 H11        53.4015   18.8250   38.1734 H         1 <0>         0.0600 
     44 H12        55.7749   22.2773   41.1840 H         1 <0>         0.0600 
     45 H13        56.1244   20.9788   40.0628 H         1 <0>         0.0600 
     46 H14        55.0466   21.1098   37.6311 H         1 <0>         0.0600 
     47 H15        54.0267   22.4821   37.2409 H         1 <0>         0.0600 
     48 H16        59.7241   22.8169   34.3688 H         1 <0>         0.0600 
     49 H17        59.7239   24.3002   35.4250 H         1 <0>         0.0600 
     50 H18        61.3412   23.2446   36.9945 H         1 <0>         0.0600 
     51 H19        61.4631   21.8621   35.8163 H         1 <0>         0.0600 
     52 H20        56.9972   23.8828   39.7697 H         1 <0>         0.0600 
     53 H21        58.0182   22.5149   40.1680 H         1 <0>         0.0600 
     54 H22        55.9703   24.0189   37.3704 H         1 <0>         0.0600 
     55 H23        56.3259   22.7132   36.2838 H         1 <0>         0.0600 
     56 H24        58.4548   24.1772   37.3589 H         1 <0>         0.0600 
     57 H25        59.3227   23.2140   38.5006 H         1 <0>         0.0600 
     58 H26        54.2446   19.8415   40.2947 H         1 <0>         0.0600 
     59 H27        54.5942   23.5169   39.3877 H         1 <0>         0.0600 
     60 H28        59.5784   19.0250   36.3883 H         1 <0>         0.3800 
     61 H29        60.7916   20.2455   36.7201 H         1 <0>         0.3800 
     62 H30        57.4406   21.5689   38.0465 H         1 <0>         0.2900 
     63 H31        52.9547   29.8812   41.0915 H         1 <0>         0.4286 
@<TRIPOS>BOND
     1    1   22 1    
     2    1   33 1    
     3    1   34 1    
     4    1   35 1    
     5    2    4 ar   
     6    2   15 ar   
     7    2   36 1    
     8    3    5 ar   
     9    3   15 ar   
    10    3   37 1    
    11    4   16 ar   
    12    4   38 1    
    13    5   16 ar   
    14    5   39 1    
    15    6    7 1    
    16    6   17 1    
    17    6   40 1    
    18    6   41 1    
    19    7   17 1    
    20    7   42 1    
    21    7   43 1    
    22    8   12 1    
    23    8   18 1    
    24    8   44 1    
    25    8   45 1    
    26    9   13 1    
    27    9   18 1    
    28    9   46 1    
    29    9   47 1    
    30   10   11 1    
    31   10   21 1    
    32   10   48 1    
    33   10   49 1    
    34   11   21 1    
    35   11   50 1    
    36   11   51 1    
    37   12   25 1    
    38   12   52 1    
    39   12   53 1    
    40   13   25 1    
    41   13   54 1    
    42   13   55 1    
    43   14   21 1    
    44   14   25 1    
    45   14   56 1    
    46   14   57 1    
    47   15   19 1    
    48   16   22 1    
    49   17   26 1    
    50   17   58 1    
    51   18   26 1    
    52   18   59 1    
    53   19   26 am   BACKBONE|DICT|INTERRES
    54   19   28 2    
    55   20   21 1    
    56   20   24 am   BACKBONE|DICT|INTERRES
    57   20   29 2    
    58   22   23 1    
    59   22   27 1    
    60   23   30 1    
    61   23   31 1    
    62   23   32 1    
    63   24   60 1    
    64   24   61 1    
    65   25   62 1    
    66   27   63 1    
@<TRIPOS>SUBSTRUCTURE
     1 <0>         1 GROUP             0       ****    0 ROOT    
@<TRIPOS>MOLECULE
A49_2_3FRJ
63   66    1
SMALL
USER_CHARGES


@<TRIPOS>ATOM
      1 C1         51.4951   28.5488   39.3796 C.3       1 <0>        -0.1800 
      2 C2         52.8119   24.1933   41.4205 C.ar      1 <0>        -0.1150 
      3 C3         51.1687   24.2141   39.6200 C.ar      1 <0>        -0.1150 
      4 C4         52.7682   25.5975   41.4727 C.ar      1 <0>        -0.1150 
      5 C5         51.1220   25.6196   39.6784 C.ar      1 <0>        -0.1150 
      6 C6         52.1237   18.9987   39.6632 C.3       1 <0>        -0.1200 
      7 C7         52.9649   19.2367   38.4413 C.3       1 <0>        -0.1200 
      8 C8         55.5298   21.9599   40.1721 C.3       1 <0>        -0.1200 
      9 C9         54.6508   21.8824   37.8067 C.3       1 <0>        -0.1200 
     10 C10        59.6800   21.2264   37.3315 C.3       1 <0>        -0.1200 
     11 C11        58.7242   21.3063   36.1748 C.3       1 <0>        -0.1200 
     12 C12        56.6755   22.8425   39.6810 C.3       1 <0>         0.1500 
     13 C13        55.8261   22.7697   37.3640 C.3       1 <0>         0.1500 
     14 C14        58.1942   23.3493   37.8294 C.3       1 <0>         0.1500 
     15 C15        52.0173   23.4970   40.4870 C.ar      1 <0>        -0.1150 
     16 C16        51.9257   26.3299   40.6024 C.ar      1 <0>        -0.1150 
     17 C17        53.2841   19.9740   39.7240 C.3       1 <0>        -0.0149 
     18 C18        54.2934   22.1600   39.2792 C.3       1 <0>         0.0100 
     19 C19        52.0638   22.0043   40.4220 C.2       1 <0>         0.6150 
     20 C20        60.0341   23.5309   36.1535 C.2       1 <0>         0.5000 
     21 C21        59.1342   22.5826   36.8996 C.3       1 <0>         0.0000 
     22 C22        51.8844   27.8624   40.6990 C.3       1 <0>         0.3800 
     23 C23        50.9403   28.3098   41.8489 C.3       1 <0>         0.6171 
     24 N1         61.2265   23.0739   35.7901 N.am      1 <0>        -0.7600 
     25 N2         57.0050   22.5759   38.2592 N.4       1 <0>        -0.1000 
     26 N3         53.1105   21.4105   39.7723 N.am      1 <0>        -0.1151 
     27 O1         53.1788   28.3620   40.9705 O.3       1 <0>        -0.6936 
     28 O2         51.1480   21.3933   40.9704 O.2       1 <0>        -0.5000 
     29 O3         59.7236   24.6890   35.8989 O.2       1 <0>        -0.5000 
     30 F1         51.3232   27.7678   43.0050 F         1 <0>        -0.2057 
     31 F2         49.6926   27.9100   41.5907 F         1 <0>        -0.2057 
     32 F3         50.9227   29.6378   41.9741 F         1 <0>        -0.2057 
     33 H1         50.4661   28.3359   39.0971 H         1 <0>         0.0600 
     34 H2         51.5701   29.6338   39.4586 H         1 <0>         0.0600 
     35 H3         52.1461   28.2338   38.5669 H         1 <0>         0.0600 
     36 H4         53.4556   23.6557   42.1001 H         1 <0>         0.1150 
     37 H5         50.5513   23.6880   38.9065 H         1 <0>         0.1150 
     38 H6         53.3813   26.1039   42.2040 H         1 <0>         0.1150 
     39 H7         50.4566   26.1337   39.0034 H         1 <0>         0.1150 
     40 H8         52.2466   18.0453   40.1723 H         1 <0>         0.0600 
     41 H9         51.1083   19.3777   39.6353 H         1 <0>         0.0600 
     42 H10        52.5210   19.8031   37.6264 H         1 <0>         0.0600 
     43 H11        53.6480   18.4451   38.1372 H         1 <0>         0.0600 
     44 H12        55.2956   22.2020   41.2081 H         1 <0>         0.0600 
     45 H13        55.8644   20.9224   40.1598 H         1 <0>         0.0600 
     46 H14        54.9403   20.8433   37.6682 H         1 <0>         0.0600 
     47 H15        53.7895   22.0627   37.1624 H         1 <0>         0.0600 
     48 H16        60.6842   20.9045   37.0722 H         1 <0>         0.0600 
     49 H17        59.3235   20.8436   38.2842 H         1 <0>         0.0600 
     50 H18        57.7331   20.8869   36.3237 H         1 <0>         0.0600 
     51 H19        59.1386   21.1286   35.1850 H         1 <0>         0.0600 
     52 H20        56.4049   23.8944   39.7716 H         1 <0>         0.0600 
     53 H21        57.5539   22.6754   40.3068 H         1 <0>         0.0600 
     54 H22        55.5156   23.8188   37.3705 H         1 <0>         0.0600 
     55 H23        56.0947   22.5442   36.3322 H         1 <0>         0.0600 
     56 H24        57.8505   24.2816   37.3781 H         1 <0>         0.0600 
     57 H25        58.7874   23.6421   38.6951 H         1 <0>         0.0600 
     58 H26        54.1161   19.5883   40.3106 H         1 <0>         0.0600 
     59 H27        54.0969   23.2306   39.2746 H         1 <0>         0.0600 
     60 H28        61.8495   23.6722   35.2649 H         1 <0>         0.3800 
     61 H29        61.4985   22.1290   36.0060 H         1 <0>         0.3800 
     62 H30        57.2645   21.6010   38.2050 H         1 <0>         0.2900 
     63 H31        53.3824   28.0778   41.8504 H         1 <0>         0.4286 
@<TRIPOS>BOND
     1    1   22 1    
     2    1   33 1    
     3    1   34 1    
     4    1   35 1    
     5    2    4 ar   
     6    2   15 ar   
     7    2   36 1    
     8    3    5 ar   
     9    3   15 ar   
    10    3   37 1    
    11    4   16 ar   
    12    4   38 1    
    13    5   16 ar   
    14    5   39 1    
    15    6    7 1    
    16    6   17 1    
    17    6   40 1    
    18    6   41 1    
    19    7   17 1    
    20    7   42 1    
    21    7   43 1    
    22    8   12 1    
    23    8   18 1    
    24    8   44 1    
    25    8   45 1    
    26    9   13 1    
    27    9   18 1    
    28    9   46 1    
    29    9   47 1    
    30   10   11 1    
    31   10   21 1    
    32   10   48 1    
    33   10   49 1    
    34   11   21 1    
    35   11   50 1    
    36   11   51 1    
    37   12   25 1    
    38   12   52 1    
    39   12   53 1    
    40   13   25 1    
    41   13   54 1    
    42   13   55 1    
    43   14   21 1    
    44   14   25 1    
    45   14   56 1    
    46   14   57 1    
    47   15   19 1    
    48   16   22 1    
    49   17   26 1    
    50   17   58 1    
    51   18   26 1    
    52   18   59 1    
    53   19   26 am   BACKBONE|DICT|INTERRES
    54   19   28 2    
    55   20   21 1    
    56   20   24 am   BACKBONE|DICT|INTERRES
    57   20   29 2    
    58   22   23 1    
    59   22   27 1    
    60   23   30 1    
    61   23   31 1    
    62   23   32 1    
    63   24   60 1    
    64   24   61 1    
    65   25   62 1    
    66   27   63 1    
@<TRIPOS>SUBSTRUCTURE
     1 <0>         1 GROUP             0       ****    0 ROOT    
@<TRIPOS>MOLECULE
A49_2_3FRJ
63   66    1
SMALL
USER_CHARGES


@<TRIPOS>ATOM
      1 C1         52.2147   28.7664   39.0557 C.3       1 <0>        -0.1800 
      2 C2         52.7631   24.6414   41.7333 C.ar      1 <0>        -0.1150 
      3 C3         51.4221   24.5296   39.6983 C.ar      1 <0>        -0.1150 
      4 C4         52.8272   26.0397   41.6151 C.ar      1 <0>        -0.1150 
      5 C5         51.4797   25.9304   39.5861 C.ar      1 <0>        -0.1150 
      6 C6         51.6998   19.3209   40.5704 C.3       1 <0>        -0.1200 
      7 C7         52.5406   19.3101   39.3222 C.3       1 <0>        -0.1200 
      8 C8         55.3688   21.7835   40.6766 C.3       1 <0>        -0.1200 
      9 C9         54.4593   21.8233   38.3103 C.3       1 <0>        -0.1200 
     10 C10        59.6505   20.8062   36.9016 C.3       1 <0>        -0.1200 
     11 C11        58.3295   20.8434   36.2084 C.3       1 <0>        -0.1200 
     12 C12        56.6299   22.4373   40.1427 C.3       1 <0>         0.1500 
     13 C13        55.8018   22.4418   37.8416 C.3       1 <0>         0.1500 
     14 C14        58.2848   22.4088   38.4034 C.3       1 <0>         0.1500 
     15 C15        52.0577   23.8845   40.7768 C.ar      1 <0>        -0.1150 
     16 C16        52.1825   26.6998   40.5445 C.ar      1 <0>        -0.1150 
     17 C17        52.9363   20.1796   40.4958 C.3       1 <0>        -0.0149 
     18 C18        54.1745   22.1678   39.7922 C.3       1 <0>         0.0100 
     19 C19        51.9576   22.4007   40.9290 C.2       1 <0>         0.6150 
     20 C20        59.3292   23.2492   36.2263 C.2       1 <0>         0.5000 
     21 C21        58.7898   22.0680   36.9984 C.3       1 <0>         0.0000 
     22 C22        52.1955   28.2283   40.4888 C.3       1 <0>         0.3800 
     23 C23        50.9862   28.7880   41.2979 C.3       1 <0>         0.6171 
     24 N1         58.9232   24.4743   36.5704 N.am      1 <0>        -0.7600 
     25 N2         56.8998   22.0156   38.7518 N.4       1 <0>        -0.1000 
     26 N3         52.9045   21.6184   40.3344 N.am      1 <0>        -0.1151 
     27 O1         53.4253   28.7380   40.9704 O.3       1 <0>        -0.6936 
     28 O2         51.0165   21.9763   41.5969 O.2       1 <0>        -0.5000 
     29 O3         60.1234   23.1251   35.3037 O.2       1 <0>        -0.5000 
     30 F1         50.9626   28.3172   42.5453 F         1 <0>        -0.2057 
     31 F2         49.8515   28.4118   40.7047 F         1 <0>        -0.2057 
     32 F3         50.9855   30.1179   41.3438 F         1 <0>        -0.2057 
     33 H1         51.3230   28.5161   38.4954 H         1 <0>         0.0600 
     34 H2         52.2932   29.8541   39.0418 H         1 <0>         0.0600 
     35 H3         53.0710   28.3654   38.5155 H         1 <0>         0.0600 
     36 H4         53.2430   24.1551   42.5703 H         1 <0>         0.1150 
     37 H5         50.8694   23.9553   38.9687 H         1 <0>         0.1150 
     38 H6         53.3472   26.6059   42.3758 H         1 <0>         0.1150 
     39 H7         50.9522   26.3969   38.7692 H         1 <0>         0.1150 
     40 H8         51.7338   18.4435   41.2087 H         1 <0>         0.0600 
     41 H9         50.7189   19.7817   40.4935 H         1 <0>         0.0600 
     42 H10        52.1207   19.7938   38.4423 H         1 <0>         0.0600 
     43 H11        53.1625   18.4427   39.1235 H         1 <0>         0.0600 
     44 H12        55.1952   22.0940   41.7081 H         1 <0>         0.0600 
     45 H13        55.5434   20.7080   40.6900 H         1 <0>         0.0600 
     46 H14        54.5081   20.7434   38.1736 H         1 <0>         0.0600 
     47 H15        53.6446   22.1780   37.6771 H         1 <0>         0.0600 
     48 H16        60.5401   20.8128   36.2734 H         1 <0>         0.0600 
     49 H17        59.7242   20.1592   37.7715 H         1 <0>         0.0600 
     50 H18        57.5288   20.2342   36.6212 H         1 <0>         0.0600 
     51 H19        58.3788   20.8433   35.1218 H         1 <0>         0.0600 
     52 H20        56.5474   23.5231   40.1696 H         1 <0>         0.0600 
     53 H21        57.4584   22.1501   40.7859 H         1 <0>         0.0600 
     54 H22        55.7343   23.5303   37.8220 H         1 <0>         0.0600 
     55 H23        56.0006   22.1267   36.8178 H         1 <0>         0.0600 
     56 H24        58.4406   23.4497   38.6826 H         1 <0>         0.0600 
     57 H25        58.9236   21.8677   39.0901 H         1 <0>         0.0600 
     58 H26        53.6993   19.7948   41.1671 H         1 <0>         0.0600 
     59 H27        54.1627   23.2552   39.7984 H         1 <0>         0.0600 
     60 H28        59.2882   25.2571   36.0464 H         1 <0>         0.3800 
     61 H29        58.2595   24.6293   37.3115 H         1 <0>         0.3800 
     62 H30        56.8872   21.0056   38.7466 H         1 <0>         0.2900 
     63 H31        54.1149   28.3604   40.4477 H         1 <0>         0.4286 
@<TRIPOS>BOND
     1    1   22 1    
     2    1   33 1    
     3    1   34 1    
     4    1   35 1    
     5    2    4 ar   
     6    2   15 ar   
     7    2   36 1    
     8    3    5 ar   
     9    3   15 ar   
    10    3   37 1    
    11    4   16 ar   
    12    4   38 1    
    13    5   16 ar   
    14    5   39 1    
    15    6    7 1    
    16    6   17 1    
    17    6   40 1    
    18    6   41 1    
    19    7   17 1    
    20    7   42 1    
    21    7   43 1    
    22    8   12 1    
    23    8   18 1    
    24    8   44 1    
    25    8   45 1    
    26    9   13 1    
    27    9   18 1    
    28    9   46 1    
    29    9   47 1    
    30   10   11 1    
    31   10   21 1    
    32   10   48 1    
    33   10   49 1    
    34   11   21 1    
    35   11   50 1    
    36   11   51 1    
    37   12   25 1    
    38   12   52 1    
    39   12   53 1    
    40   13   25 1    
    41   13   54 1    
    42   13   55 1    
    43   14   21 1    
    44   14   25 1    
    45   14   56 1    
    46   14   57 1    
    47   15   19 1    
    48   16   22 1    
    49   17   26 1    
    50   17   58 1    
    51   18   26 1    
    52   18   59 1    
    53   19   26 am   BACKBONE|DICT|INTERRES
    54   19   28 2    
    55   20   21 1    
    56   20   24 am   BACKBONE|DICT|INTERRES
    57   20   29 2    
    58   22   23 1    
    59   22   27 1    
    60   23   30 1    
    61   23   31 1    
    62   23   32 1    
    63   24   60 1    
    64   24   61 1    
    65   25   62 1    
    66   27   63 1    
@<TRIPOS>SUBSTRUCTURE
     1 <0>         1 GROUP             0       ****    0 ROOT    
@<TRIPOS>MOLECULE
A49_2_3FRJ
63   66    1
SMALL
USER_CHARGES


@<TRIPOS>ATOM
      1 C1         52.2230   28.5926   39.1249 C.3       1 <0>        -0.1800 
      2 C2         51.7417   24.2897   39.4387 C.ar      1 <0>        -0.1150 
      3 C3         52.6642   24.3594   41.6938 C.ar      1 <0>        -0.1150 
      4 C4         51.7116   25.6970   39.4077 C.ar      1 <0>        -0.1150 
      5 C5         52.6399   25.7611   41.6610 C.ar      1 <0>        -0.1150 
      6 C6         52.1235   19.1502   39.8467 C.3       1 <0>        -0.1200 
      7 C7         52.9233   19.3128   38.5855 C.3       1 <0>        -0.1200 
      8 C8         55.7648   21.7547   39.7582 C.3       1 <0>        -0.1200 
      9 C9         54.3301   22.1647   37.7286 C.3       1 <0>        -0.1200 
     10 C10        59.4852   21.1296   37.3706 C.3       1 <0>        -0.1200 
     11 C11        58.9831   21.0426   35.9604 C.3       1 <0>        -0.1200 
     12 C12        56.8691   22.6094   39.1114 C.3       1 <0>         0.1500 
     13 C13        55.4727   22.9839   37.1144 C.3       1 <0>         0.1500 
     14 C14        57.9171   23.2583   36.9529 C.3       1 <0>         0.1500 
     15 C15        52.2268   23.6211   40.5814 C.ar      1 <0>        -0.1150 
     16 C16        52.1710   26.4465   40.5168 C.ar      1 <0>        -0.1150 
     17 C17        53.3430   20.0524   39.8423 C.3       1 <0>        -0.0149 
     18 C18        54.3812   22.2122   39.2617 C.3       1 <0>         0.0100 
     19 C19        52.2943   22.1293   40.6335 C.2       1 <0>         0.6150 
     20 C20        60.3424   23.2074   36.1713 C.2       1 <0>         0.5000 
     21 C21        59.1500   22.4034   36.6208 C.3       1 <0>         0.0000 
     22 C22        52.1705   27.9763   40.5265 C.3       1 <0>         0.3800 
     23 C23        50.9494   28.5153   41.3247 C.3       1 <0>         0.6171 
     24 N1         60.1236   24.4497   35.7509 N.am      1 <0>        -0.7600 
     25 N2         56.8009   22.5399   37.6231 N.4       1 <0>        -0.1000 
     26 N3         53.2348   21.4949   39.8791 N.am      1 <0>        -0.1151 
     27 O1         53.3612   28.4438   41.1202 O.3       1 <0>        -0.6936 
     28 O2         51.4931   21.5587   41.3695 O.2       1 <0>        -0.5000 
     29 O3         61.4841   22.7640   36.1705 O.2       1 <0>        -0.5000 
     30 F1         50.9523   28.0483   42.5724 F         1 <0>        -0.2057 
     31 F2         49.8184   28.1196   40.7362 F         1 <0>        -0.2057 
     32 F3         50.9448   29.8480   41.3695 F         1 <0>        -0.2057 
     33 H1         51.3152   28.3907   38.5664 H         1 <0>         0.0600 
     34 H2         52.3268   29.6780   39.1732 H         1 <0>         0.0600 
     35 H3         53.0729   28.2045   38.5636 H         1 <0>         0.0600 
     36 H4         51.3931   23.7266   38.5865 H         1 <0>         0.1150 
     37 H5         53.0373   23.8520   42.5710 H         1 <0>         0.1150 
     38 H6         51.3347   26.1828   38.5211 H         1 <0>         0.1150 
     39 H7         52.9839   26.3010   42.5305 H         1 <0>         0.1150 
     40 H8         52.2022   18.1945   40.3555 H         1 <0>         0.0600 
     41 H9         51.1304   19.5933   39.8476 H         1 <0>         0.0600 
     42 H10        52.4490   19.8749   37.7829 H         1 <0>         0.0600 
     43 H11        53.5379   18.4736   38.2672 H         1 <0>         0.0600 
     44 H12        55.8251   21.8312   40.8450 H         1 <0>         0.0600 
     45 H13        55.9384   20.7116   39.5047 H         1 <0>         0.0600 
     46 H14        54.4138   21.1399   37.3725 H         1 <0>         0.0600 
     47 H15        53.3720   22.5400   37.3683 H         1 <0>         0.0600 
     48 H16        60.5234   20.8457   37.5180 H         1 <0>         0.0600 
     49 H17        58.8323   20.8434   38.1759 H         1 <0>         0.0600 
     50 H18        57.9745   20.6689   35.7941 H         1 <0>         0.0600 
     51 H19        59.7168   20.7244   35.2220 H         1 <0>         0.0600 
     52 H20        56.7646   23.6434   39.4360 H         1 <0>         0.0600 
     53 H21        57.8440   22.2893   39.4758 H         1 <0>         0.0600 
     54 H22        55.3251   24.0426   37.3314 H         1 <0>         0.0600 
     55 H23        55.4334   22.8777   36.0295 H         1 <0>         0.0600 
     56 H24        57.5529   23.6470   36.0020 H         1 <0>         0.0600 
     57 H25        58.2013   24.1243   37.5547 H         1 <0>         0.0600 
     58 H26        54.1768   19.6350   40.4028 H         1 <0>         0.0600 
     59 H27        54.3600   23.2704   39.5167 H         1 <0>         0.0600 
     60 H28        60.9142   24.9835   35.4196 H         1 <0>         0.3800 
     61 H29        59.2006   24.8534   35.7268 H         1 <0>         0.3800 
     62 H30        56.8908   21.5682   37.3603 H         1 <0>         0.2900 
     63 H31        53.3198   28.1851   42.0306 H         1 <0>         0.4286 
@<TRIPOS>BOND
     1    1   22 1    
     2    1   33 1    
     3    1   34 1    
     4    1   35 1    
     5    2    4 ar   
     6    2   15 ar   
     7    2   36 1    
     8    3    5 ar   
     9    3   15 ar   
    10    3   37 1    
    11    4   16 ar   
    12    4   38 1    
    13    5   16 ar   
    14    5   39 1    
    15    6    7 1    
    16    6   17 1    
    17    6   40 1    
    18    6   41 1    
    19    7   17 1    
    20    7   42 1    
    21    7   43 1    
    22    8   12 1    
    23    8   18 1    
    24    8   44 1    
    25    8   45 1    
    26    9   13 1    
    27    9   18 1    
    28    9   46 1    
    29    9   47 1    
    30   10   11 1    
    31   10   21 1    
    32   10   48 1    
    33   10   49 1    
    34   11   21 1    
    35   11   50 1    
    36   11   51 1    
    37   12   25 1    
    38   12   52 1    
    39   12   53 1    
    40   13   25 1    
    41   13   54 1    
    42   13   55 1    
    43   14   21 1    
    44   14   25 1    
    45   14   56 1    
    46   14   57 1    
    47   15   19 1    
    48   16   22 1    
    49   17   26 1    
    50   17   58 1    
    51   18   26 1    
    52   18   59 1    
    53   19   26 am   BACKBONE|DICT|INTERRES
    54   19   28 2    
    55   20   21 1    
    56   20   24 am   BACKBONE|DICT|INTERRES
    57   20   29 2    
    58   22   23 1    
    59   22   27 1    
    60   23   30 1    
    61   23   31 1    
    62   23   32 1    
    63   24   60 1    
    64   24   61 1    
    65   25   62 1    
    66   27   63 1    
@<TRIPOS>SUBSTRUCTURE
     1 <0>         1 GROUP             0       ****    0 ROOT    
@<TRIPOS>MOLECULE
A49_2_3FRJ
63   66    1
SMALL
USER_CHARGES


@<TRIPOS>ATOM
      1 C1         50.8977   28.4395   41.9952 C.3       1 <0>        -0.1800 
      2 C2         51.7025   24.0860   39.9683 C.ar      1 <0>        -0.1150 
      3 C3         53.1072   24.6408   41.8750 C.ar      1 <0>        -0.1150 
      4 C4         51.3112   25.4339   39.8665 C.ar      1 <0>        -0.1150 
      5 C5         52.7193   25.9902   41.7722 C.ar      1 <0>        -0.1150 
      6 C6         52.1239   19.4215   40.2095 C.3       1 <0>        -0.1200 
      7 C7         52.5534   19.5560   38.7720 C.3       1 <0>        -0.1200 
      8 C8         55.9112   21.9031   39.7541 C.3       1 <0>        -0.1200 
      9 C9         54.4188   22.0443   37.7181 C.3       1 <0>        -0.1200 
     10 C10        59.4950   21.1892   37.4266 C.3       1 <0>        -0.1200 
     11 C11        59.0923   21.0169   35.9988 C.3       1 <0>        -0.1200 
     12 C12        56.9762   22.7135   39.0194 C.3       1 <0>         0.1500 
     13 C13        55.5039   22.8674   37.0177 C.3       1 <0>         0.1500 
     14 C14        57.9142   23.2448   36.7975 C.3       1 <0>         0.1500 
     15 C15        52.6052   23.6814   40.9737 C.ar      1 <0>        -0.1150 
     16 C16        51.8127   26.4038   40.7701 C.ar      1 <0>        -0.1150 
     17 C17        53.3937   20.1751   39.8665 C.3       1 <0>        -0.0149 
     18 C18        54.5127   22.2728   39.2250 C.3       1 <0>         0.0100 
     19 C19        53.0107   22.2398   41.0956 C.2       1 <0>         0.6150 
     20 C20        60.3676   23.2391   36.1509 C.2       1 <0>         0.5000 
     21 C21        59.1841   22.4175   36.5895 C.3       1 <0>         0.0000 
     22 C22        51.4031   27.8788   40.6517 C.3       1 <0>         0.3800 
     23 C23        52.5648   28.7337   40.0754 C.3       1 <0>         0.6171 
     24 N1         60.1236   24.4682   35.6988 N.am      1 <0>        -0.7600 
     25 N2         56.8554   22.5357   37.5433 N.4       1 <0>        -0.1000 
     26 N3         53.4400   21.6126   39.9827 N.am      1 <0>        -0.1151 
     27 O1         50.3048   28.0437   39.7716 O.3       1 <0>        -0.6936 
     28 O2         52.9204   21.6652   42.1706 O.2       1 <0>        -0.5000 
     29 O3         61.5183   22.8200   36.1723 O.2       1 <0>        -0.5000 
     30 F1         52.1465   29.9637   39.7718 F         1 <0>        -0.2057 
     31 F2         53.0373   28.1580   38.9705 F         1 <0>        -0.2057 
     32 F3         53.5672   28.8396   40.9496 F         1 <0>        -0.2057 
     33 H1         51.6695   28.4203   42.7632 H         1 <0>         0.0600 
     34 H2         50.5776   29.4778   41.8920 H         1 <0>         0.0600 
     35 H3         50.0477   27.8657   42.3680 H         1 <0>         0.0600 
     36 H4         51.2991   23.3647   39.2724 H         1 <0>         0.1150 
     37 H5         53.7973   24.3449   42.6509 H         1 <0>         0.1150 
     38 H6         50.6165   25.7031   39.0851 H         1 <0>         0.1150 
     39 H7         53.1289   26.7023   42.4732 H         1 <0>         0.1150 
     40 H8         52.2313   18.4437   40.6728 H         1 <0>         0.0600 
     41 H9         51.2456   19.9853   40.5182 H         1 <0>         0.0600 
     42 H10        51.9605   20.2167   38.1424 H         1 <0>         0.0600 
     43 H11        52.9476   18.6708   38.2776 H         1 <0>         0.0600 
     44 H12        55.9834   22.0905   40.8265 H         1 <0>         0.0600 
     45 H13        56.1142   20.8433   39.6109 H         1 <0>         0.0600 
     46 H14        54.5495   20.9898   37.4776 H         1 <0>         0.0600 
     47 H15        53.4351   22.3321   37.3456 H         1 <0>         0.0600 
     48 H16        60.5237   20.9547   37.6602 H         1 <0>         0.0600 
     49 H17        58.7961   20.8435   38.1721 H         1 <0>         0.0600 
     50 H18        58.1046   20.6148   35.7831 H         1 <0>         0.0600 
     51 H19        59.8869   20.6363   35.3689 H         1 <0>         0.0600 
     52 H20        56.8807   23.7556   39.3035 H         1 <0>         0.0600 
     53 H21        57.9640   22.4249   39.3768 H         1 <0>         0.0600 
     54 H22        55.3117   23.9341   37.1454 H         1 <0>         0.0600 
     55 H23        55.4624   22.6669   35.9464 H         1 <0>         0.0600 
     56 H24        57.5450   23.5141   35.8073 H         1 <0>         0.0600 
     57 H25        58.1347   24.1825   37.3126 H         1 <0>         0.0600 
     58 H26        54.3043   19.6459   40.1389 H         1 <0>         0.0600 
     59 H27        54.4354   23.3557   39.3374 H         1 <0>         0.0600 
     60 H28        60.9070   25.0154   35.3716 H         1 <0>         0.3800 
     61 H29        59.1917   24.8488   35.6491 H         1 <0>         0.3800 
     62 H30        56.9906   21.5534   37.3512 H         1 <0>         0.2900 
     63 H31        50.6269   27.9343   38.8897 H         1 <0>         0.4286 
@<TRIPOS>BOND
     1    1   22 1    
     2    1   33 1    
     3    1   34 1    
     4    1   35 1    
     5    2    4 ar   
     6    2   15 ar   
     7    2   36 1    
     8    3    5 ar   
     9    3   15 ar   
    10    3   37 1    
    11    4   16 ar   
    12    4   38 1    
    13    5   16 ar   
    14    5   39 1    
    15    6    7 1    
    16    6   17 1    
    17    6   40 1    
    18    6   41 1    
    19    7   17 1    
    20    7   42 1    
    21    7   43 1    
    22    8   12 1    
    23    8   18 1    
    24    8   44 1    
    25    8   45 1    
    26    9   13 1    
    27    9   18 1    
    28    9   46 1    
    29    9   47 1    
    30   10   11 1    
    31   10   21 1    
    32   10   48 1    
    33   10   49 1    
    34   11   21 1    
    35   11   50 1    
    36   11   51 1    
    37   12   25 1    
    38   12   52 1    
    39   12   53 1    
    40   13   25 1    
    41   13   54 1    
    42   13   55 1    
    43   14   21 1    
    44   14   25 1    
    45   14   56 1    
    46   14   57 1    
    47   15   19 1    
    48   16   22 1    
    49   17   26 1    
    50   17   58 1    
    51   18   26 1    
    52   18   59 1    
    53   19   26 am   BACKBONE|DICT|INTERRES
    54   19   28 2    
    55   20   21 1    
    56   20   24 am   BACKBONE|DICT|INTERRES
    57   20   29 2    
    58   22   23 1    
    59   22   27 1    
    60   23   30 1    
    61   23   31 1    
    62   23   32 1    
    63   24   60 1    
    64   24   61 1    
    65   25   62 1    
    66   27   63 1    
@<TRIPOS>SUBSTRUCTURE
     1 <0>         1 GROUP             0       ****    0 ROOT    
@<TRIPOS>MOLECULE
A49_2_3FRJ
63   66    1
SMALL
USER_CHARGES


@<TRIPOS>ATOM
      1 C1         51.5097   29.3366   39.3390 C.3       1 <0>        -0.1800 
      2 C2         50.8917   25.0320   39.6311 C.ar      1 <0>        -0.1150 
      3 C3         52.8513   24.8996   41.0647 C.ar      1 <0>        -0.1150 
      4 C4         50.9156   26.4333   39.7266 C.ar      1 <0>        -0.1150 
      5 C5         52.8859   26.3119   41.1422 C.ar      1 <0>        -0.1150 
      6 C6         53.0510   19.3824   39.1337 C.3       1 <0>        -0.1200 
      7 C7         52.2019   19.5496   40.3614 C.3       1 <0>        -0.1200 
      8 C8         55.0184   21.9629   40.3349 C.3       1 <0>        -0.1200 
      9 C9         54.4359   22.0466   37.8468 C.3       1 <0>        -0.1200 
     10 C10        59.7224   20.7907   36.8856 C.3       1 <0>        -0.1200 
     11 C11        58.4115   20.8056   36.1707 C.3       1 <0>        -0.1200 
     12 C12        56.4217   22.4430   39.9606 C.3       1 <0>         0.1500 
     13 C13        55.8675   22.5568   37.5722 C.3       1 <0>         0.1500 
     14 C14        58.2592   22.3143   38.3813 C.3       1 <0>         0.1500 
     15 C15        51.8541   24.2482   40.2976 C.ar      1 <0>        -0.1150 
     16 C16        51.9097   27.0977   40.4803 C.ar      1 <0>        -0.1150 
     17 C17        52.1809   20.6198   39.2853 C.3       1 <0>        -0.0149 
     18 C18        53.9827   22.4022   39.2832 C.3       1 <0>         0.0100 
     19 C19        51.6890   22.7505   40.2576 C.2       1 <0>         0.6150 
     20 C20        59.3263   23.2351   36.2268 C.2       1 <0>         0.5000 
     21 C21        58.8266   22.0257   36.9870 C.3       1 <0>         0.0000 
     22 C22        51.8450   28.6243   40.6551 C.3       1 <0>         0.3800 
     23 C23        50.8359   28.9853   41.7768 C.3       1 <0>         0.6171 
     24 N1         58.8727   24.4424   36.5709 N.am      1 <0>        -0.7600 
     25 N2         56.8144   22.0289   38.5914 N.4       1 <0>        -0.1000 
     26 N3         52.6205   21.9507   39.6642 N.am      1 <0>        -0.1151 
     27 O1         53.0928   29.2122   40.9704 O.3       1 <0>        -0.6936 
     28 O2         50.6220   22.3016   40.6836 O.2       1 <0>        -0.5000 
     29 O3         60.1240   23.1452   35.3029 O.2       1 <0>        -0.5000 
     30 F1         51.1086   28.3116   42.8942 F         1 <0>        -0.2057 
     31 F2         49.5960   28.6716   41.3999 F         1 <0>        -0.2057 
     32 F3         50.8641   30.2936   42.0365 F         1 <0>        -0.2057 
     33 H1         50.5192   29.0884   38.9682 H         1 <0>         0.0600 
     34 H2         51.5374   30.4217   39.4480 H         1 <0>         0.0600 
     35 H3         52.2292   29.0625   38.5702 H         1 <0>         0.0600 
     36 H4         50.0988   24.5552   39.0713 H         1 <0>         0.1150 
     37 H5         53.5760   24.3234   41.6200 H         1 <0>         0.1150 
     38 H6         50.1267   26.9842   39.2396 H         1 <0>         0.1150 
     39 H7         53.6400   26.7888   41.7526 H         1 <0>         0.1150 
     40 H8         52.7272   18.6409   38.4081 H         1 <0>         0.0600 
     41 H9         54.1238   19.4212   39.2741 H         1 <0>         0.0600 
     42 H10        52.7201   19.7705   41.2917 H         1 <0>         0.0600 
     43 H11        51.3229   18.9174   40.4603 H         1 <0>         0.0600 
     44 H12        54.7532   22.3627   41.3128 H         1 <0>         0.0600 
     45 H13        55.0398   20.8840   40.4665 H         1 <0>         0.0600 
     46 H14        54.4199   20.9754   37.6637 H         1 <0>         0.0600 
     47 H15        53.7454   22.4811   37.1223 H         1 <0>         0.0600 
     48 H16        60.6219   20.8338   36.2731 H         1 <0>         0.0600 
     49 H17        59.7934   20.1271   37.7441 H         1 <0>         0.0600 
     50 H18        57.6189   20.1701   36.5590 H         1 <0>         0.0600 
     51 H19        58.4689   20.8430   35.0849 H         1 <0>         0.0600 
     52 H20        56.4711   23.5301   40.0288 H         1 <0>         0.0600 
     53 H21        57.1348   22.0495   40.6850 H         1 <0>         0.0600 
     54 H22        55.8876   23.6445   37.5806 H         1 <0>         0.0600 
     55 H23        56.1591   22.2510   36.5679 H         1 <0>         0.0600 
     56 H24        58.4939   23.3240   38.7203 H         1 <0>         0.0600 
     57 H25        58.8072   21.6753   39.0668 H         1 <0>         0.0600 
     58 H26        51.3223   20.6114   38.6173 H         1 <0>         0.0600 
     59 H27        54.0122   23.4899   39.2693 H         1 <0>         0.0600 
     60 H28        59.2106   25.2409   36.0505 H         1 <0>         0.3800 
     61 H29        58.2124   24.5725   37.3189 H         1 <0>         0.3800 
     62 H30        56.7224   21.0232   38.5527 H         1 <0>         0.2900 
     63 H31        52.9287   30.1363   41.1422 H         1 <0>         0.4286 
@<TRIPOS>BOND
     1    1   22 1    
     2    1   33 1    
     3    1   34 1    
     4    1   35 1    
     5    2    4 ar   
     6    2   15 ar   
     7    2   36 1    
     8    3    5 ar   
     9    3   15 ar   
    10    3   37 1    
    11    4   16 ar   
    12    4   38 1    
    13    5   16 ar   
    14    5   39 1    
    15    6    7 1    
    16    6   17 1    
    17    6   40 1    
    18    6   41 1    
    19    7   17 1    
    20    7   42 1    
    21    7   43 1    
    22    8   12 1    
    23    8   18 1    
    24    8   44 1    
    25    8   45 1    
    26    9   13 1    
    27    9   18 1    
    28    9   46 1    
    29    9   47 1    
    30   10   11 1    
    31   10   21 1    
    32   10   48 1    
    33   10   49 1    
    34   11   21 1    
    35   11   50 1    
    36   11   51 1    
    37   12   25 1    
    38   12   52 1    
    39   12   53 1    
    40   13   25 1    
    41   13   54 1    
    42   13   55 1    
    43   14   21 1    
    44   14   25 1    
    45   14   56 1    
    46   14   57 1    
    47   15   19 1    
    48   16   22 1    
    49   17   26 1    
    50   17   58 1    
    51   18   26 1    
    52   18   59 1    
    53   19   26 am   BACKBONE|DICT|INTERRES
    54   19   28 2    
    55   20   21 1    
    56   20   24 am   BACKBONE|DICT|INTERRES
    57   20   29 2    
    58   22   23 1    
    59   22   27 1    
    60   23   30 1    
    61   23   31 1    
    62   23   32 1    
    63   24   60 1    
    64   24   61 1    
    65   25   62 1    
    66   27   63 1    
@<TRIPOS>SUBSTRUCTURE
     1 <0>         1 GROUP             0       ****    0 ROOT    
@<TRIPOS>MOLECULE
A49_2_3FRJ
63   66    1
SMALL
USER_CHARGES


@<TRIPOS>ATOM
      1 C1         47.8633   26.3423   41.1522 C.3       1 <0>        -0.1800 
      2 C2         51.5246   24.0901   40.5053 C.ar      1 <0>        -0.1150 
      3 C3         50.5787   22.2197   41.7325 C.ar      1 <0>        -0.1150 
      4 C4         50.2770   24.7454   40.5585 C.ar      1 <0>        -0.1150 
      5 C5         49.3355   22.8629   41.7791 C.ar      1 <0>        -0.1150 
      6 C6         52.1297   19.3913   40.0493 C.3       1 <0>        -0.1200 
      7 C7         52.7371   19.4937   38.6731 C.3       1 <0>        -0.1200 
      8 C8         55.9201   21.8971   39.7965 C.3       1 <0>        -0.1200 
      9 C9         54.4353   22.1541   37.7670 C.3       1 <0>        -0.1200 
     10 C10        59.4959   21.1540   37.3311 C.3       1 <0>        -0.1200 
     11 C11        58.9948   21.0777   35.9204 C.3       1 <0>        -0.1200 
     12 C12        56.9983   22.7225   39.0839 C.3       1 <0>         0.1500 
     13 C13        55.5380   22.9802   37.0985 C.3       1 <0>         0.1500 
     14 C14        57.9689   23.3077   36.8851 C.3       1 <0>         0.1500 
     15 C15        51.6828   22.8279   41.1124 C.ar      1 <0>        -0.1150 
     16 C16        49.1753   24.1436   41.2158 C.ar      1 <0>        -0.1150 
     17 C17        53.4193   20.1625   39.8469 C.3       1 <0>        -0.0149 
     18 C18        54.5144   22.2919   39.2917 C.3       1 <0>         0.0100 
     19 C19        53.0064   22.1340   41.1317 C.2       1 <0>         0.6150 
     20 C20        60.3880   23.2287   36.1155 C.2       1 <0>         0.5000 
     21 C21        59.1893   22.4370   36.5731 C.3       1 <0>         0.0000 
     22 C22        47.8010   24.8066   41.3053 C.3       1 <0>         0.3800 
     23 C23        46.8439   24.1373   40.2802 C.3       1 <0>         0.6171 
     24 N1         60.1685   24.4394   35.6050 N.am      1 <0>        -0.7600 
     25 N2         56.8846   22.5971   37.6038 N.4       1 <0>        -0.1000 
     26 N3         53.4064   21.5954   39.9681 N.am      1 <0>        -0.1151 
     27 O1         47.2425   24.6246   42.5965 O.3       1 <0>        -0.6936 
     28 O2         53.6554   22.0435   42.1696 O.2       1 <0>        -0.5000 
     29 O3         61.5336   22.7991   36.1705 O.2       1 <0>        -0.5000 
     30 F1         46.5356   22.8943   40.6536 F         1 <0>        -0.2057 
     31 F2         47.4052   24.0607   39.0729 F         1 <0>        -0.2057 
     32 F3         45.7234   24.8433   40.1710 F         1 <0>        -0.2057 
     33 H1         48.2081   26.6495   40.1703 H         1 <0>         0.0600 
     34 H2         46.8813   26.7942   41.2951 H         1 <0>         0.0600 
     35 H3         48.5321   26.7882   41.8896 H         1 <0>         0.0600 
     36 H4         52.3582   24.5727   40.0168 H         1 <0>         0.1150 
     37 H5         50.6732   21.2447   42.1701 H         1 <0>         0.1150 
     38 H6         50.1928   25.7137   40.0905 H         1 <0>         0.1150 
     39 H7         48.5046   22.3668   42.2591 H         1 <0>         0.1150 
     40 H8         52.2006   18.4413   40.5703 H         1 <0>         0.0600 
     41 H9         51.2003   19.9332   40.2045 H         1 <0>         0.0600 
     42 H10        52.2223   20.1247   37.9530 H         1 <0>         0.0600 
     43 H11        53.2059   18.6025   38.2616 H         1 <0>         0.0600 
     44 H12        56.0024   22.0469   40.8742 H         1 <0>         0.0600 
     45 H13        56.1182   20.8436   39.6126 H         1 <0>         0.0600 
     46 H14        54.5452   21.1128   37.4671 H         1 <0>         0.0600 
     47 H15        53.4590   22.4807   37.4059 H         1 <0>         0.0600 
     48 H16        60.5243   20.8497   37.4746 H         1 <0>         0.0600 
     49 H17        58.8382   20.8436   38.1295 H         1 <0>         0.0600 
     50 H18        57.9768   20.7309   35.7556 H         1 <0>         0.0600 
     51 H19        59.7123   20.7438   35.1741 H         1 <0>         0.0600 
     52 H20        56.9098   23.7643   39.3785 H         1 <0>         0.0600 
     53 H21        57.9857   22.4107   39.4248 H         1 <0>         0.0600 
     54 H22        55.3628   24.0432   37.2702 H         1 <0>         0.0600 
     55 H23        55.4867   22.8232   36.0201 H         1 <0>         0.0600 
     56 H24        57.5823   23.6577   35.9275 H         1 <0>         0.0600 
     57 H25        58.2610   24.1983   37.4472 H         1 <0>         0.0600 
     58 H26        54.2993   19.6594   40.2440 H         1 <0>         0.0600 
     59 H27        54.4018   23.3603   39.4946 H         1 <0>         0.0600 
     60 H28        60.9647   24.9649   35.2726 H         1 <0>         0.3800 
     61 H29        59.2411   24.8220   35.5170 H         1 <0>         0.3800 
     62 H30        56.9964   21.6177   37.3817 H         1 <0>         0.2900 
     63 H31        47.8636   24.9413   43.2345 H         1 <0>         0.4286 
@<TRIPOS>BOND
     1    1   22 1    
     2    1   33 1    
     3    1   34 1    
     4    1   35 1    
     5    2    4 ar   
     6    2   15 ar   
     7    2   36 1    
     8    3    5 ar   
     9    3   15 ar   
    10    3   37 1    
    11    4   16 ar   
    12    4   38 1    
    13    5   16 ar   
    14    5   39 1    
    15    6    7 1    
    16    6   17 1    
    17    6   40 1    
    18    6   41 1    
    19    7   17 1    
    20    7   42 1    
    21    7   43 1    
    22    8   12 1    
    23    8   18 1    
    24    8   44 1    
    25    8   45 1    
    26    9   13 1    
    27    9   18 1    
    28    9   46 1    
    29    9   47 1    
    30   10   11 1    
    31   10   21 1    
    32   10   48 1    
    33   10   49 1    
    34   11   21 1    
    35   11   50 1    
    36   11   51 1    
    37   12   25 1    
    38   12   52 1    
    39   12   53 1    
    40   13   25 1    
    41   13   54 1    
    42   13   55 1    
    43   14   21 1    
    44   14   25 1    
    45   14   56 1    
    46   14   57 1    
    47   15   19 1    
    48   16   22 1    
    49   17   26 1    
    50   17   58 1    
    51   18   26 1    
    52   18   59 1    
    53   19   26 am   BACKBONE|DICT|INTERRES
    54   19   28 2    
    55   20   21 1    
    56   20   24 am   BACKBONE|DICT|INTERRES
    57   20   29 2    
    58   22   23 1    
    59   22   27 1    
    60   23   30 1    
    61   23   31 1    
    62   23   32 1    
    63   24   60 1    
    64   24   61 1    
    65   25   62 1    
    66   27   63 1    
@<TRIPOS>SUBSTRUCTURE
     1 <0>         1 GROUP             0       ****    0 ROOT    
@<TRIPOS>MOLECULE
A49_2_3FRJ
63   66    1
SMALL
USER_CHARGES


@<TRIPOS>ATOM
      1 C1         46.6202   24.4431   39.9281 C.3       1 <0>        -0.1800 
      2 C2         51.2751   23.9296   41.7420 C.ar      1 <0>        -0.1150 
      3 C3         50.3176   22.2455   40.2767 C.ar      1 <0>        -0.1150 
      4 C4         50.0648   24.6464   41.7014 C.ar      1 <0>        -0.1150 
      5 C5         49.0991   22.9457   40.2614 C.ar      1 <0>        -0.1150 
      6 C6         52.1299   19.0384   40.1883 C.3       1 <0>        -0.1200 
      7 C7         52.5239   19.2791   38.7540 C.3       1 <0>        -0.1200 
      8 C8         55.6219   21.7630   39.5995 C.3       1 <0>        -0.1200 
      9 C9         53.9329   22.1906   37.7585 C.3       1 <0>        -0.1200 
     10 C10        59.9670   23.1443   35.8760 C.3       1 <0>        -0.1200 
     11 C11        59.8723   23.0369   37.3704 C.3       1 <0>        -0.1200 
     12 C12        56.6418   22.6085   38.8280 C.3       1 <0>         0.1500 
     13 C13        55.0007   23.0269   37.0359 C.3       1 <0>         0.1500 
     14 C14        57.4191   23.1594   36.5252 C.3       1 <0>         0.1500 
     15 C15        51.4138   22.7246   41.0257 C.ar      1 <0>        -0.1150 
     16 C16        48.9519   24.1605   40.9737 C.ar      1 <0>        -0.1150 
     17 C17        53.2804   19.9663   39.8684 C.3       1 <0>        -0.0149 
     18 C18        54.1707   22.1888   39.2744 C.3       1 <0>         0.0100 
     19 C19        52.6918   21.9402   41.1208 C.2       1 <0>         0.6150 
     20 C20        58.7227   20.9274   36.4470 C.2       1 <0>         0.5000 
     21 C21        58.7746   22.4418   36.5254 C.3       1 <0>         0.0000 
     22 C22        47.6325   24.9549   40.9752 C.3       1 <0>         0.3800 
     23 C23        46.9673   24.9631   42.3817 C.3       1 <0>         0.6171 
     24 N1         59.8747   20.2825   36.2536 N.am      1 <0>        -0.7600 
     25 N2         56.3643   22.5385   37.3662 N.4       1 <0>        -0.1000 
     26 N3         53.1452   21.3950   39.9791 N.am      1 <0>        -0.1151 
     27 O1         47.8755   26.3016   40.6095 O.3       1 <0>        -0.6936 
     28 O2         53.3238   21.8751   42.1703 O.2       1 <0>        -0.5000 
     29 O3         57.6798   20.2895   36.5687 O.2       1 <0>        -0.5000 
     30 F1         45.8234   25.6491   42.3552 F         1 <0>        -0.2057 
     31 F2         47.7638   25.5145   43.3001 F         1 <0>        -0.2057 
     32 F3         46.6917   23.7153   42.7625 F         1 <0>        -0.2057 
     33 H1         46.2846   23.4337   40.1686 H         1 <0>         0.0600 
     34 H2         45.7288   25.0697   39.8993 H         1 <0>         0.0600 
     35 H3         47.0436   24.4330   38.9245 H         1 <0>         0.0600 
     36 H4         52.0977   24.3128   42.3280 H         1 <0>         0.1150 
     37 H5         50.3858   21.3242   39.7192 H         1 <0>         0.1150 
     38 H6         49.9966   25.5705   42.2549 H         1 <0>         0.1150 
     39 H7         48.2864   22.5187   39.6923 H         1 <0>         0.1150 
     40 H8         52.3637   18.0497   40.5703 H         1 <0>         0.0600 
     41 H9         51.1925   19.4568   40.5456 H         1 <0>         0.0600 
     42 H10        51.8385   19.8779   38.1556 H         1 <0>         0.0600 
     43 H11        53.0210   18.4694   38.2260 H         1 <0>         0.0600 
     44 H12        55.8139   21.8340   40.6708 H         1 <0>         0.0600 
     45 H13        55.7911   20.7269   39.3160 H         1 <0>         0.0600 
     46 H14        53.9588   21.1715   37.3693 H         1 <0>         0.0600 
     47 H15        52.9398   22.5826   37.5313 H         1 <0>         0.0600 
     48 H16        60.7509   22.5678   35.3897 H         1 <0>         0.0600 
     49 H17        59.7898   24.1219   35.4354 H         1 <0>         0.0600 
     50 H18        59.6342   23.9420   37.9190 H         1 <0>         0.0600 
     51 H19        60.5234   22.3475   37.8951 H         1 <0>         0.0600 
     52 H20        56.6193   23.6419   39.1741 H         1 <0>         0.0600 
     53 H21        57.6407   22.2302   39.0422 H         1 <0>         0.0600 
     54 H22        54.9127   24.0813   37.3073 H         1 <0>         0.0600 
     55 H23        54.8358   22.9628   35.9574 H         1 <0>         0.0600 
     56 H24        57.0729   23.2378   35.4926 H         1 <0>         0.0600 
     57 H25        57.5755   24.1792   36.8707 H         1 <0>         0.0600 
     58 H26        54.2355   19.5459   40.1708 H         1 <0>         0.0600 
     59 H27        54.0775   23.2338   39.5850 H         1 <0>         0.0600 
     60 H28        59.8631   19.2767   36.1675 H         1 <0>         0.3800 
     61 H29        60.7390   20.7951   36.1680 H         1 <0>         0.3800 
     62 H30        56.3943   21.5565   37.1174 H         1 <0>         0.2900 
     63 H31        48.4208   26.6936   41.2778 H         1 <0>         0.4286 
@<TRIPOS>BOND
     1    1   22 1    
     2    1   33 1    
     3    1   34 1    
     4    1   35 1    
     5    2    4 ar   
     6    2   15 ar   
     7    2   36 1    
     8    3    5 ar   
     9    3   15 ar   
    10    3   37 1    
    11    4   16 ar   
    12    4   38 1    
    13    5   16 ar   
    14    5   39 1    
    15    6    7 1    
    16    6   17 1    
    17    6   40 1    
    18    6   41 1    
    19    7   17 1    
    20    7   42 1    
    21    7   43 1    
    22    8   12 1    
    23    8   18 1    
    24    8   44 1    
    25    8   45 1    
    26    9   13 1    
    27    9   18 1    
    28    9   46 1    
    29    9   47 1    
    30   10   11 1    
    31   10   21 1    
    32   10   48 1    
    33   10   49 1    
    34   11   21 1    
    35   11   50 1    
    36   11   51 1    
    37   12   25 1    
    38   12   52 1    
    39   12   53 1    
    40   13   25 1    
    41   13   54 1    
    42   13   55 1    
    43   14   21 1    
    44   14   25 1    
    45   14   56 1    
    46   14   57 1    
    47   15   19 1    
    48   16   22 1    
    49   17   26 1    
    50   17   58 1    
    51   18   26 1    
    52   18   59 1    
    53   19   26 am   BACKBONE|DICT|INTERRES
    54   19   28 2    
    55   20   21 1    
    56   20   24 am   BACKBONE|DICT|INTERRES
    57   20   29 2    
    58   22   23 1    
    59   22   27 1    
    60   23   30 1    
    61   23   31 1    
    62   23   32 1    
    63   24   60 1    
    64   24   61 1    
    65   25   62 1    
    66   27   63 1    
@<TRIPOS>SUBSTRUCTURE
     1 <0>         1 GROUP             0       ****    0 ROOT    
@<TRIPOS>MOLECULE
A49_2_3FRJ
63   66    1
SMALL
USER_CHARGES


@<TRIPOS>ATOM
      1 C1         46.6804   24.0937   40.4088 C.3       1 <0>        -0.1800 
      2 C2         50.4732   22.0471   41.5033 C.ar      1 <0>        -0.1150 
      3 C3         51.3988   24.2750   41.1861 C.ar      1 <0>        -0.1150 
      4 C4         49.1801   22.5966   41.5929 C.ar      1 <0>        -0.1150 
      5 C5         50.1054   24.8235   41.2783 C.ar      1 <0>        -0.1150 
      6 C6         51.8661   19.7657   40.0415 C.3       1 <0>        -0.1200 
      7 C7         52.1916   20.0524   38.5951 C.3       1 <0>        -0.1200 
      8 C8         55.8220   21.8722   39.4026 C.3       1 <0>        -0.1200 
      9 C9         54.1320   22.5175   37.6575 C.3       1 <0>        -0.1200 
     10 C10        60.1752   23.1805   35.7944 C.3       1 <0>        -0.1200 
     11 C11        60.0649   23.2077   37.2959 C.3       1 <0>        -0.1200 
     12 C12        56.8832   22.6150   38.5719 C.3       1 <0>         0.1500 
     13 C13        55.2559   23.2373   36.9089 C.3       1 <0>         0.1500 
     14 C14        57.5896   23.2303   36.3757 C.3       1 <0>         0.1500 
     15 C15        51.5888   22.8811   41.2748 C.ar      1 <0>        -0.1150 
     16 C16        48.9783   23.9928   41.4771 C.ar      1 <0>        -0.1150 
     17 C17        53.1924   20.3877   39.6750 C.3       1 <0>        -0.0149 
     18 C18        54.4206   22.4767   39.1753 C.3       1 <0>         0.0100 
     19 C19        52.9747   22.3067   41.1863 C.2       1 <0>         0.6150 
     20 C20        58.8892   21.0678   36.5369 C.2       1 <0>         0.5000 
     21 C21        58.9640   22.5635   36.4740 C.3       1 <0>         0.0000 
     22 C22        47.5703   24.6025   41.5611 C.3       1 <0>         0.3800 
     23 C23        46.9197   24.3324   42.9449 C.3       1 <0>         0.6171 
     24 N1         57.7266   20.5254   36.1718 N.am      1 <0>        -0.7600 
     25 N2         56.5338   22.5582   37.1485 N.4       1 <0>        -0.1000 
     26 N3         53.3891   21.7868   39.9965 N.am      1 <0>        -0.1151 
     27 O1         47.5911   26.0113   41.3990 O.3       1 <0>        -0.6936 
     28 O2         53.6737   22.3208   42.1991 O.2       1 <0>        -0.5000 
     29 O3         59.8255   20.3839   36.9411 O.2       1 <0>        -0.5000 
     30 F1         47.6902   24.7914   43.9316 F         1 <0>        -0.2057 
     31 F2         46.7549   23.0216   43.1331 F         1 <0>        -0.2057 
     32 F3         45.7320   24.9347   43.0292 F         1 <0>        -0.2057 
     33 H1         46.5256   23.0161   40.4567 H         1 <0>         0.0600 
     34 H2         45.6936   24.5572   40.4312 H         1 <0>         0.0600 
     35 H3         47.1259   24.3185   39.4389 H         1 <0>         0.0600 
     36 H4         50.6037   20.9791   41.6045 H         1 <0>         0.1150 
     37 H5         52.2456   24.9303   41.0387 H         1 <0>         0.1150 
     38 H6         48.3481   21.9273   41.7544 H         1 <0>         0.1150 
     39 H7         49.9897   25.8937   41.1940 H         1 <0>         0.1150 
     40 H8         51.8686   18.7241   40.3626 H         1 <0>         0.0600 
     41 H9         51.1274   20.4024   40.5284 H         1 <0>         0.0600 
     42 H10        51.6705   20.8806   38.1149 H         1 <0>         0.0600 
     43 H11        52.4117   19.2024   37.9492 H         1 <0>         0.0600 
     44 H12        56.0795   21.9206   40.4607 H         1 <0>         0.0600 
     45 H13        55.8183   20.8149   39.1379 H         1 <0>         0.0600 
     46 H14        54.0119   21.5084   37.2631 H         1 <0>         0.0600 
     47 H15        53.1848   23.0277   37.4828 H         1 <0>         0.0600 
     48 H16        60.9074   22.5028   35.3553 H         1 <0>         0.0600 
     49 H17        60.0309   24.1203   35.2615 H         1 <0>         0.0600 
     50 H18        59.8451   24.1650   37.7687 H         1 <0>         0.0600 
     51 H19        60.7216   22.5475   37.8624 H         1 <0>         0.0600 
     52 H20        56.9661   23.6493   38.9056 H         1 <0>         0.0600 
     53 H21        57.8567   22.1524   38.7344 H         1 <0>         0.0600 
     54 H22        55.3129   24.2815   37.2161 H         1 <0>         0.0600 
     55 H23        55.0275   23.2343   35.8431 H         1 <0>         0.0600 
     56 H24        57.3142   23.2437   35.3199 H         1 <0>         0.0600 
     57 H25        57.6624   24.2747   36.6833 H         1 <0>         0.0600 
     58 H26        54.0816   19.7619   39.7510 H         1 <0>         0.0600 
     59 H27        54.4699   23.5237   39.4668 H         1 <0>         0.0600 
     60 H28        57.6197   19.5208   36.1938 H         1 <0>         0.3800 
     61 H29        56.9723   21.1067   35.8359 H         1 <0>         0.3800 
     62 H30        56.4483   21.5927   36.8647 H         1 <0>         0.2900 
     63 H31        48.1400   26.3783   42.0759 H         1 <0>         0.4286 
@<TRIPOS>BOND
     1    1   22 1    
     2    1   33 1    
     3    1   34 1    
     4    1   35 1    
     5    2    4 ar   
     6    2   15 ar   
     7    2   36 1    
     8    3    5 ar   
     9    3   15 ar   
    10    3   37 1    
    11    4   16 ar   
    12    4   38 1    
    13    5   16 ar   
    14    5   39 1    
    15    6    7 1    
    16    6   17 1    
    17    6   40 1    
    18    6   41 1    
    19    7   17 1    
    20    7   42 1    
    21    7   43 1    
    22    8   12 1    
    23    8   18 1    
    24    8   44 1    
    25    8   45 1    
    26    9   13 1    
    27    9   18 1    
    28    9   46 1    
    29    9   47 1    
    30   10   11 1    
    31   10   21 1    
    32   10   48 1    
    33   10   49 1    
    34   11   21 1    
    35   11   50 1    
    36   11   51 1    
    37   12   25 1    
    38   12   52 1    
    39   12   53 1    
    40   13   25 1    
    41   13   54 1    
    42   13   55 1    
    43   14   21 1    
    44   14   25 1    
    45   14   56 1    
    46   14   57 1    
    47   15   19 1    
    48   16   22 1    
    49   17   26 1    
    50   17   58 1    
    51   18   26 1    
    52   18   59 1    
    53   19   26 am   BACKBONE|DICT|INTERRES
    54   19   28 2    
    55   20   21 1    
    56   20   24 am   BACKBONE|DICT|INTERRES
    57   20   29 2    
    58   22   23 1    
    59   22   27 1    
    60   23   30 1    
    61   23   31 1    
    62   23   32 1    
    63   24   60 1    
    64   24   61 1    
    65   25   62 1    
    66   27   63 1    
@<TRIPOS>SUBSTRUCTURE
     1 <0>         1 GROUP             0       ****    0 ROOT    
@<TRIPOS>MOLECULE
A49_2_3FRJ
63   66    1
SMALL
USER_CHARGES


@<TRIPOS>ATOM
      1 C1         46.7461   23.6439   41.7746 C.3       1 <0>        -0.1800 
      2 C2         50.6693   22.4633   39.7762 C.ar      1 <0>        -0.1150 
      3 C3         51.2311   23.7283   41.7701 C.ar      1 <0>        -0.1150 
      4 C4         49.3931   23.0619   39.7641 C.ar      1 <0>        -0.1150 
      5 C5         49.9571   24.3200   41.7612 C.ar      1 <0>        -0.1150 
      6 C6         52.2937   19.2608   39.8039 C.3       1 <0>        -0.1200 
      7 C7         52.8148   19.5449   38.4135 C.3       1 <0>        -0.1200 
      8 C8         55.9610   21.9528   40.1167 C.3       1 <0>        -0.1200 
      9 C9         54.9527   22.0408   37.8050 C.3       1 <0>        -0.1200 
     10 C10        59.8504   23.2430   35.3860 C.3       1 <0>        -0.1200 
     11 C11        60.9062   22.8268   36.3438 C.3       1 <0>        -0.1200 
     12 C12        57.1483   22.7648   39.5979 C.3       1 <0>         0.1500 
     13 C13        56.1813   22.8435   37.3306 C.3       1 <0>         0.1500 
     14 C14        58.6367   23.1811   37.6824 C.3       1 <0>         0.1500 
     15 C15        51.5963   22.7744   40.7976 C.ar      1 <0>        -0.1150 
     16 C16        49.0096   23.9841   40.7687 C.ar      1 <0>        -0.1150 
     17 C17        53.5192   20.1328   39.6141 C.3       1 <0>        -0.0149 
     18 C18        54.6814   22.2666   39.3080 C.3       1 <0>         0.0100 
     19 C19        52.9170   22.0641   40.9307 C.2       1 <0>         0.6150 
     20 C20        59.1077   20.9788   36.4093 C.2       1 <0>         0.5000 
     21 C21        59.4547   22.4363   36.6119 C.3       1 <0>         0.0000 
     22 C22        47.5739   24.5341   40.8309 C.3       1 <0>         0.3800 
     23 C23        47.4791   26.0300   41.2679 C.3       1 <0>         0.6171 
     24 N1         60.0935   20.0949   36.5707 N.am      1 <0>        -0.7600 
     25 N2         57.3830   22.5258   38.1540 N.4       1 <0>        -0.1000 
     26 N3         53.4793   21.5611   39.8099 N.am      1 <0>        -0.1151 
     27 O1         46.9244   24.4426   39.5716 O.3       1 <0>        -0.6936 
     28 O2         53.4866   22.0366   42.0214 O.2       1 <0>        -0.5000 
     29 O3         57.9671   20.5962   36.1703 O.2       1 <0>        -0.5000 
     30 F1         48.3256   26.7891   40.5705 F         1 <0>        -0.2057 
     31 F2         47.7526   26.1809   42.5644 F         1 <0>        -0.2057 
     32 F3         46.2389   26.4901   41.0874 F         1 <0>        -0.2057 
     33 H1         47.1708   23.6313   42.7791 H         1 <0>         0.0600 
     34 H2         45.7236   24.0046   41.8636 H         1 <0>         0.0600 
     35 H3         46.7084   22.6112   41.4252 H         1 <0>         0.0600 
     36 H4         50.9104   21.7410   39.0110 H         1 <0>         0.1150 
     37 H5         51.9188   23.9931   42.5626 H         1 <0>         0.1150 
     38 H6         48.7001   22.7686   38.9893 H         1 <0>         0.1150 
     39 H7         49.7209   25.0059   42.5589 H         1 <0>         0.1150 
     40 H8         52.4467   18.2509   40.1794 H         1 <0>         0.0600 
     41 H9         51.3517   19.7184   40.0907 H         1 <0>         0.0600 
     42 H10        52.2319   20.2163   37.7851 H         1 <0>         0.0600 
     43 H11        53.3188   18.7370   37.8855 H         1 <0>         0.0600 
     44 H12        55.8259   22.1792   41.1727 H         1 <0>         0.0600 
     45 H13        56.2088   20.8936   40.0641 H         1 <0>         0.0600 
     46 H14        55.1323   20.9840   37.6090 H         1 <0>         0.0600 
     47 H15        54.0767   22.3208   37.2187 H         1 <0>         0.0600 
     48 H16        59.7810   22.7497   34.4215 H         1 <0>         0.0600 
     49 H17        59.7069   24.3193   35.3704 H         1 <0>         0.0600 
     50 H18        61.3240   23.6028   36.9692 H         1 <0>         0.0600 
     51 H19        61.6269   22.0996   35.9742 H         1 <0>         0.0600 
     52 H20        56.9671   23.8237   39.7694 H         1 <0>         0.0600 
     53 H21        58.0377   22.4982   40.1702 H         1 <0>         0.0600 
     54 H22        55.9639   23.9098   37.3703 H         1 <0>         0.0600 
     55 H23        56.3779   22.6192   36.2814 H         1 <0>         0.0600 
     56 H24        58.4024   24.1889   37.3361 H         1 <0>         0.0600 
     57 H25        59.3099   23.3271   38.5253 H         1 <0>         0.0600 
     58 H26        54.4415   19.6433   39.9132 H         1 <0>         0.0600 
     59 H27        54.4875   23.3373   39.4173 H         1 <0>         0.0600 
     60 H28        59.8981   19.1139   36.4252 H         1 <0>         0.3800 
     61 H29        61.0297   20.4063   36.7809 H         1 <0>         0.3800 
     62 H30        57.5326   21.5314   38.0441 H         1 <0>         0.2900 
     63 H31        46.8184   23.5288   39.3642 H         1 <0>         0.4286 
@<TRIPOS>BOND
     1    1   22 1    
     2    1   33 1    
     3    1   34 1    
     4    1   35 1    
     5    2    4 ar   
     6    2   15 ar   
     7    2   36 1    
     8    3    5 ar   
     9    3   15 ar   
    10    3   37 1    
    11    4   16 ar   
    12    4   38 1    
    13    5   16 ar   
    14    5   39 1    
    15    6    7 1    
    16    6   17 1    
    17    6   40 1    
    18    6   41 1    
    19    7   17 1    
    20    7   42 1    
    21    7   43 1    
    22    8   12 1    
    23    8   18 1    
    24    8   44 1    
    25    8   45 1    
    26    9   13 1    
    27    9   18 1    
    28    9   46 1    
    29    9   47 1    
    30   10   11 1    
    31   10   21 1    
    32   10   48 1    
    33   10   49 1    
    34   11   21 1    
    35   11   50 1    
    36   11   51 1    
    37   12   25 1    
    38   12   52 1    
    39   12   53 1    
    40   13   25 1    
    41   13   54 1    
    42   13   55 1    
    43   14   21 1    
    44   14   25 1    
    45   14   56 1    
    46   14   57 1    
    47   15   19 1    
    48   16   22 1    
    49   17   26 1    
    50   17   58 1    
    51   18   26 1    
    52   18   59 1    
    53   19   26 am   BACKBONE|DICT|INTERRES
    54   19   28 2    
    55   20   21 1    
    56   20   24 am   BACKBONE|DICT|INTERRES
    57   20   29 2    
    58   22   23 1    
    59   22   27 1    
    60   23   30 1    
    61   23   31 1    
    62   23   32 1    
    63   24   60 1    
    64   24   61 1    
    65   25   62 1    
    66   27   63 1    
@<TRIPOS>SUBSTRUCTURE
     1 <0>         1 GROUP             0       ****    0 ROOT    
@<TRIPOS>MOLECULE
A49_2_3FRJ
63   66    1
SMALL
USER_CHARGES


@<TRIPOS>ATOM
      1 C1         46.7397   24.4270   39.9683 C.3       1 <0>        -0.1800 
      2 C2         51.3915   23.8254   41.7680 C.ar      1 <0>        -0.1150 
      3 C3         50.4606   22.2546   40.1652 C.ar      1 <0>        -0.1150 
      4 C4         50.1856   24.5518   41.7508 C.ar      1 <0>        -0.1150 
      5 C5         49.2454   22.9609   40.1731 C.ar      1 <0>        -0.1150 
      6 C6         52.2146   19.0679   39.9084 C.3       1 <0>        -0.1200 
      7 C7         52.5674   19.4518   38.4931 C.3       1 <0>        -0.1200 
      8 C8         55.7858   21.8897   40.0036 C.3       1 <0>        -0.1200 
      9 C9         54.5368   22.0372   37.8148 C.3       1 <0>        -0.1200 
     10 C10        59.5113   21.1497   37.3688 C.3       1 <0>        -0.1200 
     11 C11        58.8254   21.1855   36.0303 C.3       1 <0>        -0.1200 
     12 C12        56.8981   22.7601   39.4073 C.3       1 <0>         0.1500 
     13 C13        55.6677   22.9127   37.2567 C.3       1 <0>         0.1500 
     14 C14        58.0993   23.3884   37.3343 C.3       1 <0>         0.1500 
     15 C15        51.5378   22.6662   40.9790 C.ar      1 <0>        -0.1150 
     16 C16        49.0849   24.1168   40.9748 C.ar      1 <0>        -0.1150 
     17 C17        53.3840   19.9901   39.6452 C.3       1 <0>        -0.0149 
     18 C18        54.4212   22.1880   39.3411 C.3       1 <0>         0.0100 
     19 C19        52.7935   21.8476   41.0739 C.2       1 <0>         0.6150 
     20 C20        60.3578   23.2544   36.1704 C.2       1 <0>         0.5000 
     21 C21        59.1801   22.4888   36.7288 C.3       1 <0>         0.0000 
     22 C22        47.7593   24.8982   41.0294 C.3       1 <0>         0.3800 
     23 C23        47.1119   24.8156   42.4441 C.3       1 <0>         0.6171 
     24 N1         60.1236   24.4598   35.6631 N.am      1 <0>        -0.7600 
     25 N2         56.9658   22.6284   37.9272 N.4       1 <0>        -0.1000 
     26 N3         53.3103   21.3997   39.9149 N.am      1 <0>        -0.1151 
     27 O1         47.9841   26.2667   40.7381 O.3       1 <0>        -0.6936 
     28 O2         53.3233   21.6466   42.1661 O.2       1 <0>        -0.5000 
     29 O3         61.5074   22.8342   36.1705 O.2       1 <0>        -0.5000 
     30 F1         45.9454   25.4655   42.4706 F         1 <0>        -0.2057 
     31 F2         47.9000   25.3476   43.3784 F         1 <0>        -0.2057 
     32 F3         46.8838   23.5395   42.7647 F         1 <0>        -0.2057 
     33 H1         46.4105   23.4071   40.1697 H         1 <0>         0.0600 
     34 H2         45.8471   25.0514   39.9680 H         1 <0>         0.0600 
     35 H3         47.1548   24.4505   38.9609 H         1 <0>         0.0600 
     36 H4         52.2018   24.1583   42.4017 H         1 <0>         0.1150 
     37 H5         50.5334   21.3722   39.5496 H         1 <0>         0.1150 
     38 H6         50.1094   25.4320   42.3711 H         1 <0>         0.1150 
     39 H7         48.4432   22.5781   39.5603 H         1 <0>         0.1150 
     40 H8         52.4364   18.0433   40.1818 H         1 <0>         0.0600 
     41 H9         51.3034   19.4727   40.3403 H         1 <0>         0.0600 
     42 H10        51.8993   20.1395   37.9786 H         1 <0>         0.0600 
     43 H11        53.0306   18.6932   37.8651 H         1 <0>         0.0600 
     44 H12        55.7372   22.0584   41.0807 H         1 <0>         0.0600 
     45 H13        56.0603   20.8436   39.8742 H         1 <0>         0.0600 
     46 H14        54.7374   20.9999   37.5490 H         1 <0>         0.0600 
     47 H15        53.5932   22.2999   37.3348 H         1 <0>         0.0600 
     48 H16        60.5363   20.7924   37.3696 H         1 <0>         0.0600 
     49 H17        58.9350   20.8453   38.2356 H         1 <0>         0.0600 
     50 H18        57.7782   20.8919   35.9813 H         1 <0>         0.0600 
     51 H19        59.4117   20.8880   35.1653 H         1 <0>         0.0600 
     52 H20        56.7311   23.7981   39.6912 H         1 <0>         0.0600 
     53 H21        57.8561   22.4728   39.8428 H         1 <0>         0.0600 
     54 H22        55.4096   23.9674   37.3704 H         1 <0>         0.0600 
     55 H23        55.7653   22.7308   36.1860 H         1 <0>         0.0600 
     56 H24        57.7154   24.0443   36.5532 H         1 <0>         0.0600 
     57 H25        58.5552   24.0418   38.0820 H         1 <0>         0.0600 
     58 H26        54.3472   19.5194   39.8214 H         1 <0>         0.0600 
     59 H27        54.1983   23.2420   39.5226 H         1 <0>         0.0600 
     60 H28        60.9041   24.9728   35.2770 H         1 <0>         0.3800 
     61 H29        59.1951   24.8508   35.6273 H         1 <0>         0.3800 
     62 H30        57.1628   21.6541   37.7420 H         1 <0>         0.2900 
     63 H31        48.5073   26.6320   41.4361 H         1 <0>         0.4286 
@<TRIPOS>BOND
     1    1   22 1    
     2    1   33 1    
     3    1   34 1    
     4    1   35 1    
     5    2    4 ar   
     6    2   15 ar   
     7    2   36 1    
     8    3    5 ar   
     9    3   15 ar   
    10    3   37 1    
    11    4   16 ar   
    12    4   38 1    
    13    5   16 ar   
    14    5   39 1    
    15    6    7 1    
    16    6   17 1    
    17    6   40 1    
    18    6   41 1    
    19    7   17 1    
    20    7   42 1    
    21    7   43 1    
    22    8   12 1    
    23    8   18 1    
    24    8   44 1    
    25    8   45 1    
    26    9   13 1    
    27    9   18 1    
    28    9   46 1    
    29    9   47 1    
    30   10   11 1    
    31   10   21 1    
    32   10   48 1    
    33   10   49 1    
    34   11   21 1    
    35   11   50 1    
    36   11   51 1    
    37   12   25 1    
    38   12   52 1    
    39   12   53 1    
    40   13   25 1    
    41   13   54 1    
    42   13   55 1    
    43   14   21 1    
    44   14   25 1    
    45   14   56 1    
    46   14   57 1    
    47   15   19 1    
    48   16   22 1    
    49   17   26 1    
    50   17   58 1    
    51   18   26 1    
    52   18   59 1    
    53   19   26 am   BACKBONE|DICT|INTERRES
    54   19   28 2    
    55   20   21 1    
    56   20   24 am   BACKBONE|DICT|INTERRES
    57   20   29 2    
    58   22   23 1    
    59   22   27 1    
    60   23   30 1    
    61   23   31 1    
    62   23   32 1    
    63   24   60 1    
    64   24   61 1    
    65   25   62 1    
    66   27   63 1    
@<TRIPOS>SUBSTRUCTURE
     1 <0>         1 GROUP             0       ****    0 ROOT    
