@<TRIPOS>MOLECULE
KIQ_901_2I78
49   52    1
SMALL
USER_CHARGES


@<TRIPOS>ATOM
      1 C1        -14.2157   -6.3931   57.7013 C.ar      1 <0>        -0.1150 
      2 C2        -12.0095   -4.8486   58.4897 C.ar      1 <0>        -0.1150 
      3 C3        -20.7199   -2.5868   58.8188 C.3       1 <0>         0.0025 
      4 C4        -20.2398   -3.1007   60.1916 C.3       1 <0>        -0.0500 
      5 C5        -16.8593   -4.9640   58.3146 C.3       1 <0>        -0.1200 
      6 C6        -22.1752   -4.5599   60.5132 C.3       1 <0>         0.0650 
      7 C7        -17.4245   -5.9440   61.0968 C.3       1 <0>        -0.1200 
      8 C8        -18.2594   -5.0898   58.8923 C.2       1 <0>        -0.1150 
      9 C9        -14.3806   -5.4076   58.7024 C.ar      1 <0>        -0.1150 
     10 C10       -12.9649   -6.5920   57.0852 C.ar      1 <0>         0.1300 
     11 C11       -13.2623   -4.6352   59.0959 C.ar      1 <0>         0.2200 
     12 C12       -11.8595   -5.8144   57.4762 C.ar      1 <0>         0.1300 
     13 C13       -22.8096   -3.8304   59.3543 C.ar      1 <0>         0.2950 
     14 C14       -23.0172   -2.5951   57.6716 C.ar      1 <0>         0.2950 
     15 C15       -15.7420   -5.1795   59.3611 C.3       1 <0>         0.0550 
     16 C16       -16.1316   -6.3113   60.3386 C.3       1 <0>         0.2500 
     17 C17       -18.5290   -5.4920   60.1520 C.2       1 <0>        -0.0567 
     18 C18       -19.9171   -5.5796   60.6112 C.2       1 <0>         0.5567 
     19 C19       -22.7516   -1.6385   56.5372 C.3       1 <0>         0.7150 
     20 N1        -15.0489   -6.6141   61.2916 N.4       1 <0>        -0.3000 
     21 N2        -24.0760   -3.9832   58.9607 N.2       1 <0>        -0.3633 
     22 N3        -24.2087   -3.1818   57.8452 N.2       1 <0>        -0.3633 
     23 N4        -22.1113   -2.9495   58.6111 N.pl3     1 <0>        -0.2159 
     24 N5        -20.7019   -4.4853   60.4073 N.am      1 <0>        -0.1400 
     25 O1        -20.3642   -6.6035   61.1277 O.2       1 <0>        -0.5000 
     26 F1        -12.8281   -7.5298   56.1160 F         1 <0>        -0.1300 
     27 F2        -13.3829   -3.7035   60.0721 F         1 <0>        -0.2200 
     28 F3        -10.6546   -5.9954   56.8889 F         1 <0>        -0.1300 
     29 F4        -23.0553   -2.2133   55.3711 F         1 <0>        -0.2000 
     30 F5        -23.5036   -0.5470   56.6749 F         1 <0>        -0.2000 
     31 F6        -21.4772   -1.2538   56.4821 F         1 <0>        -0.2000 
     32 H1        -15.0438   -7.0135   57.3898 H         1 <0>         0.1150 
     33 H2        -11.1613   -4.2600   58.7972 H         1 <0>         0.1150 
     34 H3        -20.1296   -3.0073   58.0052 H         1 <0>         0.0600 
     35 H4        -20.6167   -1.5010   58.7759 H         1 <0>         0.0600 
     36 H5        -19.1616   -2.9760   60.2970 H         1 <0>         0.0600 
     37 H6        -20.6712   -2.4753   60.9759 H         1 <0>         0.0600 
     38 H7        -16.8067   -5.7083   57.5221 H         1 <0>         0.0600 
     39 H8        -16.7466   -3.9897   57.8375 H         1 <0>         0.0600 
     40 H9        -22.5096   -4.1117   61.4496 H         1 <0>         0.0600 
     41 H10       -22.5403   -5.5893   60.5001 H         1 <0>         0.0600 
     42 H11       -17.2356   -5.1405   61.8091 H         1 <0>         0.0600 
     43 H12       -17.7616   -6.8054   61.6766 H         1 <0>         0.0600 
     44 H13       -19.0638   -4.8496   58.2096 H         1 <0>         0.1150 
     45 H14       -15.6843   -4.2613   59.9468 H         1 <0>         0.0600 
     46 H15       -16.3052   -7.2242   59.7655 H         1 <0>         0.0600 
     47 H16       -14.8688   -5.8310   61.9194 H         1 <0>         0.3300 
     48 H17       -15.3284   -7.4042   61.8569 H         1 <0>         0.3300 
     49 H18       -14.1976   -6.8212   60.7850 H         1 <0>         0.3300 
@<TRIPOS>BOND
     1    1    9 ar   
     2    1   10 ar   
     3    1   32 1    
     4    2   11 ar   
     5    2   12 ar   
     6    2   33 1    
     7    3    4 1    
     8    3   23 1    
     9    3   34 1    
    10    3   35 1    
    11    4   24 1    
    12    4   36 1    
    13    4   37 1    
    14    5    8 1    
    15    5   15 1    
    16    5   38 1    
    17    5   39 1    
    18    6   13 1    
    19    6   24 1    
    20    6   40 1    
    21    6   41 1    
    22    7   16 1    
    23    7   17 1    
    24    7   42 1    
    25    7   43 1    
    26    8   17 2    
    27    8   44 1    
    28    9   11 ar   
    29    9   15 1    
    30   10   12 ar   
    31   10   26 1    
    32   11   27 1    
    33   12   28 1    
    34   13   21 ar   
    35   13   23 ar   
    36   14   19 1    
    37   14   22 ar   
    38   14   23 ar   
    39   15   16 1    
    40   15   45 1    
    41   16   20 1    
    42   16   46 1    
    43   17   18 1    
    44   18   24 am   BACKBONE|DICT|INTERRES
    45   18   25 2    
    46   19   29 1    
    47   19   30 1    
    48   19   31 1    
    49   20   47 1    
    50   20   48 1    
    51   20   49 1    
    52   21   22 ar   
@<TRIPOS>SUBSTRUCTURE
     1 <0>         1 GROUP             0       ****    0 ROOT    
@<TRIPOS>MOLECULE
KIQ_901_2I78
49   52    1
SMALL
USER_CHARGES


@<TRIPOS>ATOM
      1 C1        -14.1712   -6.6140   57.5695 C.ar      1 <0>        -0.1150 
      2 C2        -11.9894   -5.0143   58.2943 C.ar      1 <0>        -0.1150 
      3 C3        -20.9848   -3.2220   58.7814 C.3       1 <0>         0.0025 
      4 C4        -20.1816   -3.4204   60.0851 C.3       1 <0>        -0.0500 
      5 C5        -16.8789   -5.3885   58.2616 C.3       1 <0>        -0.1200 
      6 C6        -21.9381   -4.7145   61.1768 C.3       1 <0>         0.0650 
      7 C7        -17.2210   -6.0503   61.1693 C.3       1 <0>        -0.1200 
      8 C8        -18.2326   -5.5050   58.9394 C.2       1 <0>        -0.1150 
      9 C9        -14.3440   -5.6196   58.5591 C.ar      1 <0>        -0.1150 
     10 C10       -12.9317   -6.7921   56.9277 C.ar      1 <0>         0.1300 
     11 C11       -13.2355   -4.8186   58.9180 C.ar      1 <0>         0.2200 
     12 C12       -11.8430   -5.9834   57.2892 C.ar      1 <0>         0.1300 
     13 C13       -22.8562   -4.2155   60.0912 C.ar      1 <0>         0.2950 
     14 C14       -23.4869   -3.3640   58.2842 C.ar      1 <0>         0.2950 
     15 C15       -15.6912   -5.4131   59.2564 C.3       1 <0>         0.0550 
     16 C16       -15.9614   -6.4431   60.3744 C.3       1 <0>         0.2500 
     17 C17       -18.4038   -5.7484   60.2564 C.2       1 <0>        -0.0567 
     18 C18       -19.7471   -5.8202   60.8284 C.2       1 <0>         0.5567 
     19 C19       -23.4531   -2.7310   56.9236 C.3       1 <0>         0.7150 
     20 N1        -14.8214   -6.6140   61.2896 N.4       1 <0>        -0.3000 
     21 N2        -24.1805   -4.3716   60.0769 N.2       1 <0>        -0.3633 
     22 N3        -24.5969   -3.8140   58.8826 N.2       1 <0>        -0.3633 
     23 N4        -22.3766   -3.5512   59.0244 N.pl3     1 <0>        -0.2159 
     24 N5        -20.5412   -4.7210   60.6868 N.am      1 <0>        -0.1400 
     25 O1        -20.1307   -6.8225   61.4313 O.2       1 <0>        -0.5000 
     26 F1        -12.7823   -7.7524   55.9862 F         1 <0>        -0.1300 
     27 F2        -13.3539   -3.8753   59.8857 F         1 <0>        -0.2200 
     28 F3        -10.6532   -6.1392   56.6748 F         1 <0>        -0.1300 
     29 F4        -22.6536   -3.4207   56.1093 F         1 <0>        -0.2000 
     30 F5        -24.6690   -2.7094   56.3743 F         1 <0>        -0.2000 
     31 F6        -23.0058   -1.4782   56.9985 F         1 <0>        -0.2000 
     32 H1        -14.9851   -7.2574   57.2912 H         1 <0>         0.1150 
     33 H2        -11.1462   -4.4026   58.5761 H         1 <0>         0.1150 
     34 H3        -20.6196   -3.8573   57.9758 H         1 <0>         0.0600 
     35 H4        -20.9119   -2.1881   58.4424 H         1 <0>         0.0600 
     36 H5        -19.1157   -3.2777   59.9159 H         1 <0>         0.0600 
     37 H6        -20.4509   -2.6352   60.7920 H         1 <0>         0.0600 
     38 H7        -16.8363   -6.2189   57.5604 H         1 <0>         0.0600 
     39 H8        -16.8493   -4.4740   57.6683 H         1 <0>         0.0600 
     40 H9        -22.0220   -4.0555   62.0418 H         1 <0>         0.0600 
     41 H10       -22.2914   -5.6977   61.4904 H         1 <0>         0.0600 
     42 H11       -17.0319   -5.1688   61.7835 H         1 <0>         0.0600 
     43 H12       -17.4815   -6.8571   61.8586 H         1 <0>         0.0600 
     44 H13       -19.0865   -5.3719   58.2926 H         1 <0>         0.1150 
     45 H14       -15.6663   -4.4301   59.7294 H         1 <0>         0.0600 
     46 H15       -16.1272   -7.4147   59.9096 H         1 <0>         0.0600 
     47 H16       -14.6535   -5.7918   61.8691 H         1 <0>         0.3300 
     48 H17       -15.0516   -7.3644   61.9253 H         1 <0>         0.3300 
     49 H18       -13.9820   -6.8261   60.7669 H         1 <0>         0.3300 
@<TRIPOS>BOND
     1    1    9 ar   
     2    1   10 ar   
     3    1   32 1    
     4    2   11 ar   
     5    2   12 ar   
     6    2   33 1    
     7    3    4 1    
     8    3   23 1    
     9    3   34 1    
    10    3   35 1    
    11    4   24 1    
    12    4   36 1    
    13    4   37 1    
    14    5    8 1    
    15    5   15 1    
    16    5   38 1    
    17    5   39 1    
    18    6   13 1    
    19    6   24 1    
    20    6   40 1    
    21    6   41 1    
    22    7   16 1    
    23    7   17 1    
    24    7   42 1    
    25    7   43 1    
    26    8   17 2    
    27    8   44 1    
    28    9   11 ar   
    29    9   15 1    
    30   10   12 ar   
    31   10   26 1    
    32   11   27 1    
    33   12   28 1    
    34   13   21 ar   
    35   13   23 ar   
    36   14   19 1    
    37   14   22 ar   
    38   14   23 ar   
    39   15   16 1    
    40   15   45 1    
    41   16   20 1    
    42   16   46 1    
    43   17   18 1    
    44   18   24 am   BACKBONE|DICT|INTERRES
    45   18   25 2    
    46   19   29 1    
    47   19   30 1    
    48   19   31 1    
    49   20   47 1    
    50   20   48 1    
    51   20   49 1    
    52   21   22 ar   
@<TRIPOS>SUBSTRUCTURE
     1 <0>         1 GROUP             0       ****    0 ROOT    
@<TRIPOS>MOLECULE
KIQ_901_2I78
49   52    1
SMALL
USER_CHARGES


@<TRIPOS>ATOM
      1 C1        -14.4649   -6.2322   58.0198 C.ar      1 <0>        -0.1150 
      2 C2        -11.9842   -5.0116   58.4819 C.ar      1 <0>        -0.1150 
      3 C3        -22.4167   -5.8314   62.6889 C.3       1 <0>         0.0025 
      4 C4        -21.8094   -5.3334   61.3697 C.3       1 <0>        -0.0500 
      5 C5        -16.6876   -4.3238   59.0546 C.3       1 <0>        -0.1200 
      6 C6        -19.9661   -6.9409   61.4186 C.3       1 <0>         0.0650 
      7 C7        -17.0696   -5.3061   61.8571 C.3       1 <0>        -0.1200 
      8 C8        -18.0042   -4.2160   59.8019 C.2       1 <0>        -0.1150 
      9 C9        -14.3382   -5.2898   59.0689 C.ar      1 <0>        -0.1150 
     10 C10       -13.3605   -6.5414   57.1953 C.ar      1 <0>         0.1300 
     11 C11       -13.0844   -4.6778   59.2913 C.ar      1 <0>         0.2200 
     12 C12       -12.1182   -5.9262   57.4249 C.ar      1 <0>         0.1300 
     13 C13       -20.6660   -7.6075   62.5723 C.ar      1 <0>         0.2950 
     14 C14       -22.1065   -7.9727   64.0529 C.ar      1 <0>         0.2950 
     15 C15       -15.5352   -4.8789   59.9271 C.3       1 <0>         0.0550 
     16 C16       -16.0582   -5.9677   60.9006 C.3       1 <0>         0.2500 
     17 C17       -18.1933   -4.6676   61.0580 C.2       1 <0>        -0.0567 
     18 C18       -19.5097   -4.4902   61.6426 C.2       1 <0>         0.5567 
     19 C19       -23.3227   -7.8389   64.9331 C.3       1 <0>         0.7150 
     20 N1        -14.9990   -6.6144   61.6881 N.4       1 <0>        -0.3000 
     21 N2        -20.2749   -8.7398   63.1587 N.2       1 <0>        -0.3633 
     22 N3        -21.2457   -9.0005   64.1110 N.2       1 <0>        -0.3633 
     23 N4        -21.7955   -7.0847   63.0868 N.pl3     1 <0>        -0.2159 
     24 N5        -20.3530   -5.5165   61.3916 N.am      1 <0>        -0.1400 
     25 O1        -19.8728   -3.4451   62.1806 O.2       1 <0>        -0.5000 
     26 F1        -13.4879   -7.4157   56.1698 F         1 <0>        -0.1300 
     27 F2        -12.9246   -3.7783   60.2928 F         1 <0>        -0.2200 
     28 F3        -11.0562   -6.2087   56.6329 F         1 <0>        -0.1300 
     29 F4        -23.0531   -8.2147   66.1798 F         1 <0>        -0.2000 
     30 F5        -23.7878   -6.5910   64.9933 F         1 <0>        -0.2000 
     31 F6        -24.3058   -8.6141   64.4766 F         1 <0>        -0.2000 
     32 H1        -15.4119   -6.7119   57.8261 H         1 <0>         0.1150 
     33 H2        -11.0403   -4.5305   58.6648 H         1 <0>         0.1150 
     34 H3        -23.4924   -5.9735   62.5803 H         1 <0>         0.0600 
     35 H4        -22.2488   -5.1011   63.4822 H         1 <0>         0.0600 
     36 H5        -22.2180   -5.9041   60.5341 H         1 <0>         0.0600 
     37 H6        -22.0920   -4.2957   61.1841 H         1 <0>         0.0600 
     38 H7        -16.8812   -4.9748   58.2028 H         1 <0>         0.0600 
     39 H8        -16.4174   -3.3492   58.6464 H         1 <0>         0.0600 
     40 H9        -18.9029   -7.1382   61.5004 H         1 <0>         0.0600 
     41 H10       -20.2712   -7.4142   60.4915 H         1 <0>         0.0600 
     42 H11       -16.5876   -4.5237   62.4461 H         1 <0>         0.0600 
     43 H12       -17.4481   -6.0227   62.5869 H         1 <0>         0.0600 
     44 H13       -18.8189   -3.7589   59.2555 H         1 <0>         0.1150 
     45 H14       -15.2125   -4.0452   60.5516 H         1 <0>         0.0600 
     46 H15       -16.5437   -6.7582   60.3256 H         1 <0>         0.0600 
     47 H16       -14.6530   -5.9531   62.4023 H         1 <0>         0.3300 
     48 H17       -15.3761   -7.4283   62.1588 H         1 <0>         0.3300 
     49 H18       -14.2310   -6.8659   61.0798 H         1 <0>         0.3300 
@<TRIPOS>BOND
     1    1    9 ar   
     2    1   10 ar   
     3    1   32 1    
     4    2   11 ar   
     5    2   12 ar   
     6    2   33 1    
     7    3    4 1    
     8    3   23 1    
     9    3   34 1    
    10    3   35 1    
    11    4   24 1    
    12    4   36 1    
    13    4   37 1    
    14    5    8 1    
    15    5   15 1    
    16    5   38 1    
    17    5   39 1    
    18    6   13 1    
    19    6   24 1    
    20    6   40 1    
    21    6   41 1    
    22    7   16 1    
    23    7   17 1    
    24    7   42 1    
    25    7   43 1    
    26    8   17 2    
    27    8   44 1    
    28    9   11 ar   
    29    9   15 1    
    30   10   12 ar   
    31   10   26 1    
    32   11   27 1    
    33   12   28 1    
    34   13   21 ar   
    35   13   23 ar   
    36   14   19 1    
    37   14   22 ar   
    38   14   23 ar   
    39   15   16 1    
    40   15   45 1    
    41   16   20 1    
    42   16   46 1    
    43   17   18 1    
    44   18   24 am   BACKBONE|DICT|INTERRES
    45   18   25 2    
    46   19   29 1    
    47   19   30 1    
    48   19   31 1    
    49   20   47 1    
    50   20   48 1    
    51   20   49 1    
    52   21   22 ar   
@<TRIPOS>SUBSTRUCTURE
     1 <0>         1 GROUP             0       ****    0 ROOT    
@<TRIPOS>MOLECULE
KIQ_901_2I78
49   52    1
SMALL
USER_CHARGES


@<TRIPOS>ATOM
      1 C1        -14.1294   -6.4018   57.7515 C.ar      1 <0>        -0.1150 
      2 C2        -11.9105   -4.8600   58.4897 C.ar      1 <0>        -0.1150 
      3 C3        -21.9397   -6.1911   62.4734 C.3       1 <0>         0.0025 
      4 C4        -20.7426   -6.2636   61.5150 C.3       1 <0>        -0.0500 
      5 C5        -15.4489   -6.6142   60.7937 C.3       1 <0>        -0.1200 
      6 C6        -19.5628   -7.9448   62.9191 C.3       1 <0>         0.0650 
      7 C7        -17.3935   -4.3225   60.8880 C.3       1 <0>        -0.1200 
      8 C8        -16.6473   -6.5723   61.7221 C.2       1 <0>        -0.1150 
      9 C9        -14.2304   -5.5389   58.8658 C.ar      1 <0>        -0.1150 
     10 C10       -12.9302   -6.5056   57.0199 C.ar      1 <0>         0.1300 
     11 C11       -13.1068   -4.7529   59.2243 C.ar      1 <0>         0.2200 
     12 C12       -11.8164   -5.7316   57.3894 C.ar      1 <0>         0.1300 
     13 C13       -20.9077   -8.1854   63.5525 C.ar      1 <0>         0.2950 
     14 C14       -22.9113   -7.9036   64.0919 C.ar      1 <0>         0.2950 
     15 C15       -15.5297   -5.5548   59.6743 C.3       1 <0>         0.0550 
     16 C16       -15.9876   -4.1999   60.2662 C.3       1 <0>         0.2500 
     17 C17       -17.5327   -5.5587   61.7644 C.2       1 <0>        -0.0567 
     18 C18       -18.6851   -5.6617   62.6460 C.2       1 <0>         0.5567 
     19 C19       -24.2931   -7.3265   64.1924 C.3       1 <0>         0.7150 
     20 N1        -15.9784   -3.1284   59.2533 N.4       1 <0>        -0.3000 
     21 N2        -21.1958   -9.2014   64.3680 N.2       1 <0>        -0.3633 
     22 N3        -22.5164   -9.0142   64.7241 N.2       1 <0>        -0.3633 
     23 N4        -21.9515   -7.3712   63.3117 N.pl3     1 <0>        -0.2159 
     24 N5        -19.5262   -6.6319   62.2488 N.am      1 <0>        -0.1400 
     25 O1        -18.9366   -4.9026   63.5815 O.2       1 <0>        -0.5000 
     26 F1        -12.8494   -7.3487   55.9647 F         1 <0>        -0.1300 
     27 F2        -13.1553   -3.8961   60.2722 F         1 <0>        -0.2200 
     28 F3        -10.6580   -5.8139   56.6936 F         1 <0>        -0.1300 
     29 F4        -24.9999   -7.6371   63.1037 F         1 <0>        -0.2000 
     30 F5        -24.9319   -7.8138   65.2605 F         1 <0>        -0.2000 
     31 F6        -24.2544   -5.9986   64.3107 F         1 <0>        -0.2000 
     32 H1        -14.9695   -7.0137   57.4635 H         1 <0>         0.1150 
     33 H2        -11.0545   -4.2669   58.7730 H         1 <0>         0.1150 
     34 H3        -22.8761   -6.1263   61.9194 H         1 <0>         0.0600 
     35 H4        -21.8672   -5.3129   63.1166 H         1 <0>         0.0600 
     36 H5        -20.9265   -7.0126   60.7465 H         1 <0>         0.0600 
     37 H6        -20.6229   -5.3145   60.9870 H         1 <0>         0.0600 
     38 H7        -14.5550   -6.4590   61.4013 H         1 <0>         0.0600 
     39 H8        -15.3667   -7.6131   60.3640 H         1 <0>         0.0600 
     40 H9        -18.7925   -8.0206   63.6895 H         1 <0>         0.0600 
     41 H10       -19.3689   -8.7300   62.1879 H         1 <0>         0.0600 
     42 H11       -18.1560   -4.3829   60.1099 H         1 <0>         0.0600 
     43 H12       -17.6166   -3.4346   61.4824 H         1 <0>         0.0600 
     44 H13       -16.7567   -7.4141   62.3884 H         1 <0>         0.1150 
     45 H14       -16.3150   -5.8772   58.9879 H         1 <0>         0.0600 
     46 H15       -15.3070   -3.9123   61.0653 H         1 <0>         0.0600 
     47 H16       -16.6047   -3.3655   58.4982 H         1 <0>         0.3300 
     48 H17       -16.2725   -2.2611   59.6774 H         1 <0>         0.3300 
     49 H18       -15.0404   -3.0271   58.8920 H         1 <0>         0.3300 
@<TRIPOS>BOND
     1    1    9 ar   
     2    1   10 ar   
     3    1   32 1    
     4    2   11 ar   
     5    2   12 ar   
     6    2   33 1    
     7    3    4 1    
     8    3   23 1    
     9    3   34 1    
    10    3   35 1    
    11    4   24 1    
    12    4   36 1    
    13    4   37 1    
    14    5    8 1    
    15    5   15 1    
    16    5   38 1    
    17    5   39 1    
    18    6   13 1    
    19    6   24 1    
    20    6   40 1    
    21    6   41 1    
    22    7   16 1    
    23    7   17 1    
    24    7   42 1    
    25    7   43 1    
    26    8   17 2    
    27    8   44 1    
    28    9   11 ar   
    29    9   15 1    
    30   10   12 ar   
    31   10   26 1    
    32   11   27 1    
    33   12   28 1    
    34   13   21 ar   
    35   13   23 ar   
    36   14   19 1    
    37   14   22 ar   
    38   14   23 ar   
    39   15   16 1    
    40   15   45 1    
    41   16   20 1    
    42   16   46 1    
    43   17   18 1    
    44   18   24 am   BACKBONE|DICT|INTERRES
    45   18   25 2    
    46   19   29 1    
    47   19   30 1    
    48   19   31 1    
    49   20   47 1    
    50   20   48 1    
    51   20   49 1    
    52   21   22 ar   
@<TRIPOS>SUBSTRUCTURE
     1 <0>         1 GROUP             0       ****    0 ROOT    
@<TRIPOS>MOLECULE
KIQ_901_2I78
49   52    1
SMALL
USER_CHARGES


@<TRIPOS>ATOM
      1 C1        -14.0921   -6.4437   57.4546 C.ar      1 <0>        -0.1150 
      2 C2        -12.0250   -4.8471   58.4991 C.ar      1 <0>        -0.1150 
      3 C3        -21.0398   -8.0060   63.4918 C.3       1 <0>         0.0025 
      4 C4        -19.8723   -7.8247   62.5015 C.3       1 <0>        -0.0500 
      5 C5        -15.4471   -6.7176   60.6731 C.3       1 <0>        -0.1200 
      6 C6        -20.8892   -5.8780   61.4128 C.3       1 <0>         0.0650 
      7 C7        -17.5277   -4.5425   60.4600 C.3       1 <0>        -0.1200 
      8 C8        -16.6267   -6.5925   61.6215 C.2       1 <0>        -0.1150 
      9 C9        -14.2965   -5.7462   58.6673 C.ar      1 <0>        -0.1150 
     10 C10       -12.8669   -6.3404   56.7680 C.ar      1 <0>         0.1300 
     11 C11       -13.2495   -4.9498   59.1873 C.ar      1 <0>         0.2200 
     12 C12       -11.8325   -5.5404   57.2895 C.ar      1 <0>         0.1300 
     13 C13       -22.1568   -6.2273   62.1346 C.ar      1 <0>         0.2950 
     14 C14       -23.4579   -7.2128   63.4334 C.ar      1 <0>         0.2950 
     15 C15       -15.6219   -5.8573   59.4073 C.3       1 <0>         0.0550 
     16 C16       -16.1654   -4.4607   59.7457 C.3       1 <0>         0.2500 
     17 C17       -17.5554   -5.6253   61.5246 C.2       1 <0>        -0.0567 
     18 C18       -18.6718   -5.5929   62.4696 C.2       1 <0>         0.5567 
     19 C19       -24.0052   -8.1575   64.4938 C.3       1 <0>         0.7150 
     20 N1        -16.2858   -3.6475   58.5259 N.4       1 <0>        -0.3000 
     21 N2        -23.3517   -5.6494   61.9471 N.2       1 <0>        -0.3633 
     22 N3        -24.2147   -6.3020   62.8088 N.2       1 <0>        -0.3633 
     23 N4        -22.1740   -7.2168   63.0472 N.pl3     1 <0>        -0.2159 
     24 N5        -19.7315   -6.3912   62.1741 N.am      1 <0>        -0.1400 
     25 O1        -18.6396   -4.8907   63.4788 O.2       1 <0>        -0.5000 
     26 F1        -12.6859   -7.0145   55.6080 F         1 <0>        -0.1300 
     27 F2        -13.4082   -4.2897   60.3590 F         1 <0>        -0.2200 
     28 F3        -10.6526   -5.4409   56.6330 F         1 <0>        -0.1300 
     29 F4        -25.0039   -8.8967   64.0101 F         1 <0>        -0.2000 
     30 F5        -23.0463   -8.9792   64.9209 F         1 <0>        -0.2000 
     31 F6        -24.4678   -7.4703   65.5389 F         1 <0>        -0.2000 
     32 H1        -14.8744   -7.0608   57.0374 H         1 <0>         0.1150 
     33 H2        -11.2296   -4.2364   58.9009 H         1 <0>         0.1150 
     34 H3        -20.7570   -7.6691   64.4891 H         1 <0>         0.0600 
     35 H4        -21.3330   -9.0531   63.5669 H         1 <0>         0.0600 
     36 H5        -18.9654   -8.2815   62.8976 H         1 <0>         0.0600 
     37 H6        -20.0851   -8.3685   61.5811 H         1 <0>         0.0600 
     38 H7        -14.5473   -6.4200   61.2115 H         1 <0>         0.0600 
     39 H8        -15.3162   -7.7636   60.3961 H         1 <0>         0.0600 
     40 H9        -20.9077   -6.3310   60.4216 H         1 <0>         0.0600 
     41 H10       -20.8576   -4.7984   61.2658 H         1 <0>         0.0600 
     42 H11       -18.3195   -4.7544   59.7415 H         1 <0>         0.0600 
     43 H12       -17.7661   -3.5817   60.9162 H         1 <0>         0.0600 
     44 H13       -16.6954   -7.3246   62.4124 H         1 <0>         0.1150 
     45 H14       -16.3118   -6.3522   58.7239 H         1 <0>         0.0600 
     46 H15       -15.4496   -3.9453   60.3861 H         1 <0>         0.0600 
     47 H16       -16.9325   -4.0863   57.8860 H         1 <0>         0.3300 
     48 H17       -16.6207   -2.7247   58.7639 H         1 <0>         0.3300 
     49 H18       -15.3805   -3.5709   58.0839 H         1 <0>         0.3300 
@<TRIPOS>BOND
     1    1    9 ar   
     2    1   10 ar   
     3    1   32 1    
     4    2   11 ar   
     5    2   12 ar   
     6    2   33 1    
     7    3    4 1    
     8    3   23 1    
     9    3   34 1    
    10    3   35 1    
    11    4   24 1    
    12    4   36 1    
    13    4   37 1    
    14    5    8 1    
    15    5   15 1    
    16    5   38 1    
    17    5   39 1    
    18    6   13 1    
    19    6   24 1    
    20    6   40 1    
    21    6   41 1    
    22    7   16 1    
    23    7   17 1    
    24    7   42 1    
    25    7   43 1    
    26    8   17 2    
    27    8   44 1    
    28    9   11 ar   
    29    9   15 1    
    30   10   12 ar   
    31   10   26 1    
    32   11   27 1    
    33   12   28 1    
    34   13   21 ar   
    35   13   23 ar   
    36   14   19 1    
    37   14   22 ar   
    38   14   23 ar   
    39   15   16 1    
    40   15   45 1    
    41   16   20 1    
    42   16   46 1    
    43   17   18 1    
    44   18   24 am   BACKBONE|DICT|INTERRES
    45   18   25 2    
    46   19   29 1    
    47   19   30 1    
    48   19   31 1    
    49   20   47 1    
    50   20   48 1    
    51   20   49 1    
    52   21   22 ar   
@<TRIPOS>SUBSTRUCTURE
     1 <0>         1 GROUP             0       ****    0 ROOT    
