@<TRIPOS>MOLECULE
*****
52   53    1
SMALL
USER_CHARGES


@<TRIPOS>ATOM
      1 C1         12.1549   19.7836   23.5739 C.3       1 <0>        -0.0650 
      2 C2          7.9896   19.5469   22.5063 C.ar      1 <0>         0.1500 
      3 N1          7.5331   22.5796   24.4821 N.am      1 <0>        -0.5000 
      4 O1          6.6789   19.3798   22.1749 O.3       1 <0>        -0.5850 
      5 C3          8.8574   18.4644   22.2448 C.ar      1 <0>        -0.1150 
      6 N2          7.4784   25.2908   25.7096 N.4       1 <0>        -0.1000 
      7 O2         10.3025   21.9416   24.1212 O.3       1 <0>        -0.2850 
      8 C4         10.2123   18.5817   22.5821 C.ar      1 <0>        -0.1150 
      9 O3          6.6061   22.1783   22.5063 O.2       1 <0>        -0.5000 
     10 C5         10.6908   19.7419   23.2120 C.ar      1 <0>        -0.1150 
     11 C6          9.8215   20.8262   23.4897 C.ar      1 <0>         0.0850 
     12 C7         10.5309   21.7799   25.5139 C.3       1 <0>         0.1100 
     13 C8          8.4587   20.7632   23.0943 C.ar      1 <0>        -0.1150 
     14 C9          7.5053   21.9349   23.3061 C.2       1 <0>         0.6150 
     15 C10         6.3169   23.1733   25.0489 C.3       1 <0>         0.0800 
     16 C11         6.3003   24.7073   25.0393 C.3       1 <0>         0.2100 
     17 C12         6.2395   25.3578   23.6445 C.3       1 <0>        -0.1200 
     18 C13         7.2839   26.4729   23.6679 C.3       1 <0>        -0.1200 
     19 C14         7.6462   26.6396   25.1437 C.3       1 <0>         0.1500 
     20 C15         7.4635   25.2183   27.1926 C.3       1 <0>         0.1500 
     21 C16         8.2810   24.0185   27.6981 C.3       1 <0>        -0.1800 
     22 C17         8.3665   17.1803   21.5809 C.3       1 <0>        -0.0050 
     23 C18         7.4285   16.3390   22.4638 C.3       1 <0>        -0.1800 
     24 H1         12.5185   20.8027   23.7073 H         1 <0>         0.0600 
     25 H2         12.2780   19.2399   24.5060 H         1 <0>         0.0600 
     26 H3         12.7598   19.3022   22.8056 H         1 <0>         0.0600 
     27 H4          8.3128   22.3932   25.0968 H         1 <0>         0.3000 
     28 H5          6.4942   18.5135   21.8498 H         1 <0>         0.4350 
     29 H6          8.3102   24.8060   25.3729 H         1 <0>         0.2900 
     30 H7         10.8923   17.7701   22.3692 H         1 <0>         0.1150 
     31 H8         10.6788   22.7527   25.9770 H         1 <0>         0.0300 
     32 H9          9.6806   21.3062   26.0062 H         1 <0>         0.0300 
     33 H10        11.4230   21.1890   25.7118 H         1 <0>         0.0300 
     34 H11         5.4229   22.8130   24.5403 H         1 <0>         0.0600 
     35 H12         6.2004   22.8055   26.0663 H         1 <0>         0.0600 
     36 H13         5.4085   25.0386   25.5753 H         1 <0>         0.0600 
     37 H14         6.4584   24.6650   22.8345 H         1 <0>         0.0600 
     38 H15         5.2427   25.7602   23.4583 H         1 <0>         0.0600 
     39 H16         8.1685   26.1626   23.1085 H         1 <0>         0.0600 
     40 H17         6.9087   27.3809   23.2052 H         1 <0>         0.0600 
     41 H18         8.6669   27.0004   25.2789 H         1 <0>         0.0600 
     42 H19         6.9675   27.3496   25.6250 H         1 <0>         0.0600 
     43 H20         7.8783   26.1368   27.6060 H         1 <0>         0.0600 
     44 H21         6.4439   25.1700   27.5767 H         1 <0>         0.0600 
     45 H22         8.4315   24.0653   28.7739 H         1 <0>         0.0600 
     46 H23         7.8270   23.0575   27.4749 H         1 <0>         0.0600 
     47 H24         9.2675   24.0014   27.2417 H         1 <0>         0.0600 
     48 H25         9.2281   16.5719   21.3052 H         1 <0>         0.0600 
     49 H26         7.8727   17.4319   20.6414 H         1 <0>         0.0600 
     50 H27         7.1779   15.4000   21.9689 H         1 <0>         0.0600 
     51 H28         6.4925   16.8495   22.6803 H         1 <0>         0.0600 
     52 H29         7.8854   16.0989   23.4226 H         1 <0>         0.0600 
@<TRIPOS>BOND
     1    1   10 1    
     2    1   24 1    
     3    1   25 1    
     4    1   26 1    
     5    2    5 ar   
     6    2    4 1    
     7    2   13 ar   
     8    3   14 am   BACKBONE|DICT|INTERRES
     9    3   15 1    
    10    3   27 1    
    11    4   28 1    
    12    5   22 1    
    13    5    8 ar   
    14    6   16 1    
    15    6   19 1    
    16    6   20 1    
    17    6   29 1    
    18    7   11 1    
    19    7   12 1    
    20    8   10 ar   
    21    8   30 1    
    22    9   14 2    
    23   10   11 ar   
    24   11   13 ar   
    25   12   31 1    
    26   12   32 1    
    27   12   33 1    
    28   13   14 1    
    29   15   16 1    
    30   15   34 1    
    31   15   35 1    
    32   16   17 1    
    33   16   36 1    
    34   17   18 1    
    35   17   37 1    
    36   17   38 1    
    37   18   19 1    
    38   18   39 1    
    39   18   40 1    
    40   19   41 1    
    41   19   42 1    
    42   20   21 1    
    43   20   43 1    
    44   20   44 1    
    45   21   45 1    
    46   21   46 1    
    47   21   47 1    
    48   22   23 1    
    49   22   48 1    
    50   22   49 1    
    51   23   50 1    
    52   23   51 1    
    53   23   52 1    
@<TRIPOS>SUBSTRUCTURE
     1 <0>         1 GROUP             0       ****    0 ROOT    
@<TRIPOS>MOLECULE
*****
52   53    1
SMALL
USER_CHARGES


@<TRIPOS>ATOM
      1 C1          5.8489   23.4208   23.0405 C.3       1 <0>        -0.0650 
      2 C2          6.7809   25.2086   26.8808 C.ar      1 <0>         0.1500 
      3 N1          4.8608   27.3839   27.6261 N.am      1 <0>        -0.5000 
      4 O1          7.0783   25.7364   28.1058 O.3       1 <0>        -0.5850 
      5 C3          7.3667   23.9696   26.5060 C.ar      1 <0>        -0.1150 
      6 N2          2.8550   28.0416   30.1958 N.4       1 <0>        -0.1000 
      7 O2          4.9128   26.0318   23.7811 O.3       1 <0>        -0.2850 
      8 C4          7.0259   23.4022   25.2641 C.ar      1 <0>        -0.1150 
      9 O3          5.2836   28.1797   25.5590 O.2       1 <0>        -0.5000 
     10 C5          6.1787   24.0777   24.3692 C.ar      1 <0>        -0.1150 
     11 C6          5.6629   25.3517   24.7085 C.ar      1 <0>         0.0850 
     12 C7          5.7122   26.7376   22.8397 C.3       1 <0>         0.1100 
     13 C8          5.9156   25.9101   25.9923 C.ar      1 <0>        -0.1150 
     14 C9          5.3288   27.2572   26.3701 C.2       1 <0>         0.6150 
     15 C10         4.3486   28.6203   28.2248 C.3       1 <0>         0.0800 
     16 C11         2.9147   28.4591   28.7747 C.3       1 <0>         0.2100 
     17 C12         2.1409   29.7778   28.7940 C.3       1 <0>        -0.1200 
     18 C13         1.0501   29.5882   29.8531 C.3       1 <0>        -0.1200 
     19 C14         1.4960   28.3751   30.6787 C.3       1 <0>         0.1500 
     20 C15         3.3608   26.6938   30.5541 C.3       1 <0>         0.1500 
     21 C16         2.6695   25.5376   29.8139 C.3       1 <0>        -0.1800 
     22 C17         8.3699   23.2487   27.4141 C.3       1 <0>        -0.0050 
     23 C18         9.5770   22.6371   26.6896 C.3       1 <0>        -0.1800 
     24 H1          4.8578   23.7107   22.6897 H         1 <0>         0.0600 
     25 H2          6.5858   23.7028   22.2880 H         1 <0>         0.0600 
     26 H3          5.8596   22.3341   23.1357 H         1 <0>         0.0600 
     27 H4          4.9443   26.5702   28.2216 H         1 <0>         0.3000 
     28 H5          7.2027   26.6751   28.0782 H         1 <0>         0.4350 
     29 H6          3.4426   28.6805   30.7214 H         1 <0>         0.2900 
     30 H7          7.4385   22.4494   24.9735 H         1 <0>         0.1150 
     31 H8          5.0786   27.3830   22.2351 H         1 <0>         0.0300 
     32 H9          6.4572   27.3710   23.3253 H         1 <0>         0.0300 
     33 H10         6.2314   26.0587   22.1639 H         1 <0>         0.0300 
     34 H11         5.0306   28.9512   29.0091 H         1 <0>         0.0600 
     35 H12         4.3499   29.4200   27.4805 H         1 <0>         0.0600 
     36 H13         2.3462   27.7631   28.1565 H         1 <0>         0.0600 
     37 H14         2.8080   30.5798   29.1092 H         1 <0>         0.0600 
     38 H15         1.7346   30.0475   27.8194 H         1 <0>         0.0600 
     39 H16         0.9522   30.4831   30.4698 H         1 <0>         0.0600 
     40 H17         0.0804   29.3996   29.3891 H         1 <0>         0.0600 
     41 H18         1.4786   28.5786   31.7507 H         1 <0>         0.0600 
     42 H19         0.8092   27.5486   30.4972 H         1 <0>         0.0600 
     43 H20         4.4343   26.6573   30.3659 H         1 <0>         0.0600 
     44 H21         3.2480   26.5799   31.6324 H         1 <0>         0.0600 
     45 H22         3.0800   24.5742   30.1135 H         1 <0>         0.0600 
     46 H23         1.6021   25.5065   30.0291 H         1 <0>         0.0600 
     47 H24         2.8029   25.6129   28.7363 H         1 <0>         0.0600 
     48 H25         7.8785   22.4387   27.9426 H         1 <0>         0.0600 
     49 H26         8.7465   23.9291   28.1768 H         1 <0>         0.0600 
     50 H27        10.2771   22.2279   27.4156 H         1 <0>         0.0600 
     51 H28        10.1135   23.3799   26.1061 H         1 <0>         0.0600 
     52 H29         9.2917   21.8233   26.0246 H         1 <0>         0.0600 
@<TRIPOS>BOND
     1    1   10 1    
     2    1   24 1    
     3    1   25 1    
     4    1   26 1    
     5    2    5 ar   
     6    2    4 1    
     7    2   13 ar   
     8    3   14 am   BACKBONE|DICT|INTERRES
     9    3   15 1    
    10    3   27 1    
    11    4   28 1    
    12    5   22 1    
    13    5    8 ar   
    14    6   16 1    
    15    6   19 1    
    16    6   20 1    
    17    6   29 1    
    18    7   11 1    
    19    7   12 1    
    20    8   10 ar   
    21    8   30 1    
    22    9   14 2    
    23   10   11 ar   
    24   11   13 ar   
    25   12   31 1    
    26   12   32 1    
    27   12   33 1    
    28   13   14 1    
    29   15   16 1    
    30   15   34 1    
    31   15   35 1    
    32   16   17 1    
    33   16   36 1    
    34   17   18 1    
    35   17   37 1    
    36   17   38 1    
    37   18   19 1    
    38   18   39 1    
    39   18   40 1    
    40   19   41 1    
    41   19   42 1    
    42   20   21 1    
    43   20   43 1    
    44   20   44 1    
    45   21   45 1    
    46   21   46 1    
    47   21   47 1    
    48   22   23 1    
    49   22   48 1    
    50   22   49 1    
    51   23   50 1    
    52   23   51 1    
    53   23   52 1    
@<TRIPOS>SUBSTRUCTURE
     1 <0>         1 GROUP             0       ****    0 ROOT    
@<TRIPOS>MOLECULE
*****
52   53    1
SMALL
USER_CHARGES


@<TRIPOS>ATOM
      1 C1          5.8974   23.4503   22.9694 C.3       1 <0>        -0.0650 
      2 C2          6.8024   25.1426   26.8628 C.ar      1 <0>         0.1500 
      3 N1          4.7895   27.2612   27.5692 N.am      1 <0>        -0.5000 
      4 O1          7.0784   25.6444   28.1045 O.3       1 <0>        -0.5850 
      5 C3          7.3832   23.9111   26.4668 C.ar      1 <0>        -0.1150 
      6 N2          2.9934   27.8490   30.3188 N.4       1 <0>        -0.1000 
      7 O2          4.9287   26.0353   23.7883 O.3       1 <0>        -0.2850 
      8 C4          7.0584   23.3784   25.2038 C.ar      1 <0>        -0.1150 
      9 O3          5.4783   28.1797   25.6249 O.2       1 <0>        -0.5000 
     10 C5          6.2182   24.0732   24.3164 C.ar      1 <0>        -0.1150 
     11 C6          5.6993   25.3361   24.6832 C.ar      1 <0>         0.0850 
     12 C7          5.7020   26.7798   22.8584 C.3       1 <0>         0.1100 
     13 C8          5.9595   25.8660   25.9750 C.ar      1 <0>        -0.1150 
     14 C9          5.3891   27.2073   26.3691 C.2       1 <0>         0.6150 
     15 C10         4.2002   28.4582   28.1686 C.3       1 <0>         0.0800 
     16 C11         2.8635   28.1409   28.8719 C.3       1 <0>         0.2100 
     17 C12         1.8907   29.3308   28.8351 C.3       1 <0>        -0.1200 
     18 C13         1.0419   29.2136   30.1056 C.3       1 <0>        -0.1200 
     19 C14         1.6335   28.0271   30.8683 C.3       1 <0>         0.1500 
     20 C15         3.6582   26.5798   30.6991 C.3       1 <0>         0.1500 
     21 C16         4.2508   26.6906   32.1140 C.3       1 <0>        -0.1800 
     22 C17         8.3689   23.1629   27.3682 C.3       1 <0>        -0.0050 
     23 C18         9.5979   22.6052   26.6447 C.3       1 <0>        -0.1800 
     24 H1          4.9007   23.7341   22.6321 H         1 <0>         0.0600 
     25 H2          6.6253   23.7706   22.2235 H         1 <0>         0.0600 
     26 H3          5.9285   22.3620   23.0287 H         1 <0>         0.0600 
     27 H4          4.7777   26.4049   28.1050 H         1 <0>         0.3000 
     28 H5          7.1840   26.5838   28.1058 H         1 <0>         0.4350 
     29 H6          3.5367   28.5902   30.7461 H         1 <0>         0.2900 
     30 H7          7.4735   22.4320   24.8952 H         1 <0>         0.1150 
     31 H8          5.0787   27.5429   22.3966 H         1 <0>         0.0300 
     32 H9          6.5468   27.2847   23.3294 H         1 <0>         0.0300 
     33 H10         6.0883   26.1349   22.0712 H         1 <0>         0.0300 
     34 H11         4.9100   28.9184   28.8573 H         1 <0>         0.0600 
     35 H12         4.0171   29.1989   27.3875 H         1 <0>         0.0600 
     36 H13         2.3730   27.2935   28.3875 H         1 <0>         0.0600 
     37 H14         2.4358   30.2755   28.8622 H         1 <0>         0.0600 
     38 H15         1.2838   29.3326   27.9291 H         1 <0>         0.0600 
     39 H16         1.1240   30.1280   30.6958 H         1 <0>         0.0600 
     40 H17        -0.0144   29.0586   29.8841 H         1 <0>         0.0600 
     41 H18         1.6248   28.1799   31.9475 H         1 <0>         0.0600 
     42 H19         1.0410   27.1377   30.6505 H         1 <0>         0.0600 
     43 H20         2.9542   25.7540   30.6044 H         1 <0>         0.0600 
     44 H21         4.4797   26.3585   30.0205 H         1 <0>         0.0600 
     45 H22         4.6784   25.7798   32.5063 H         1 <0>         0.0600 
     46 H23         5.0452   27.4364   32.1251 H         1 <0>         0.0600 
     47 H24         3.4906   26.9795   32.8383 H         1 <0>         0.0600 
     48 H25         7.8784   22.3205   27.8451 H         1 <0>         0.0600 
     49 H26         8.7180   23.8091   28.1726 H         1 <0>         0.0600 
     50 H27        10.2784   22.1812   27.3762 H         1 <0>         0.0600 
     51 H28        10.1377   23.3798   26.1064 H         1 <0>         0.0600 
     52 H29         9.3429   21.8168   25.9375 H         1 <0>         0.0600 
@<TRIPOS>BOND
     1    1   10 1    
     2    1   24 1    
     3    1   25 1    
     4    1   26 1    
     5    2    5 ar   
     6    2    4 1    
     7    2   13 ar   
     8    3   14 am   BACKBONE|DICT|INTERRES
     9    3   15 1    
    10    3   27 1    
    11    4   28 1    
    12    5   22 1    
    13    5    8 ar   
    14    6   16 1    
    15    6   19 1    
    16    6   20 1    
    17    6   29 1    
    18    7   11 1    
    19    7   12 1    
    20    8   10 ar   
    21    8   30 1    
    22    9   14 2    
    23   10   11 ar   
    24   11   13 ar   
    25   12   31 1    
    26   12   32 1    
    27   12   33 1    
    28   13   14 1    
    29   15   16 1    
    30   15   34 1    
    31   15   35 1    
    32   16   17 1    
    33   16   36 1    
    34   17   18 1    
    35   17   37 1    
    36   17   38 1    
    37   18   19 1    
    38   18   39 1    
    39   18   40 1    
    40   19   41 1    
    41   19   42 1    
    42   20   21 1    
    43   20   43 1    
    44   20   44 1    
    45   21   45 1    
    46   21   46 1    
    47   21   47 1    
    48   22   23 1    
    49   22   48 1    
    50   22   49 1    
    51   23   50 1    
    52   23   51 1    
    53   23   52 1    
@<TRIPOS>SUBSTRUCTURE
     1 <0>         1 GROUP             0       ****    0 ROOT    
@<TRIPOS>MOLECULE
*****
52   53    1
SMALL
USER_CHARGES


@<TRIPOS>ATOM
      1 C1          5.7508   22.9121   22.9478 C.3       1 <0>        -0.0650 
      2 C2          7.3258   24.6682   26.5772 C.ar      1 <0>         0.1500 
      3 N1          5.5467   26.7405   27.7401 N.am      1 <0>        -0.5000 
      4 O1          7.8782   25.1854   27.7061 O.3       1 <0>        -0.5850 
      5 C3          7.8785   23.4736   26.0687 C.ar      1 <0>        -0.1150 
      6 N2          3.0287   28.0144   30.1059 N.4       1 <0>        -0.1000 
      7 O2          4.7707   25.3961   24.0080 O.3       1 <0>        -0.2850 
      8 C4          7.3633   22.9348   24.8787 C.ar      1 <0>        -0.1150 
      9 O3          5.3764   27.5684   25.6600 O.2       1 <0>        -0.5000 
     10 C5          6.2915   23.5515   24.2130 C.ar      1 <0>        -0.1150 
     11 C6          5.7582   24.7629   24.7120 C.ar      1 <0>         0.0850 
     12 C7          5.3036   26.2177   22.9858 C.3       1 <0>         0.1100 
     13 C8          6.2607   25.3359   25.9097 C.ar      1 <0>        -0.1150 
     14 C9          5.7060   26.6545   26.4160 C.2       1 <0>         0.6150 
     15 C10         4.9143   27.8258   28.4772 C.3       1 <0>         0.0800 
     16 C11         3.4475   27.4699   28.7883 C.3       1 <0>         0.2100 
     17 C12         2.4506   28.0341   27.7561 C.3       1 <0>        -0.1200 
     18 C13         1.6633   29.1088   28.5058 C.3       1 <0>        -0.1200 
     19 C14         1.6909   28.6142   29.9470 C.3       1 <0>         0.1500 
     20 C15         3.1331   27.0347   31.2140 C.3       1 <0>         0.1500 
     21 C16         4.5929   26.8447   31.6581 C.3       1 <0>        -0.1800 
     22 C17         9.0856   22.8130   26.7313 C.3       1 <0>        -0.0050 
     23 C18         8.7919   22.1936   28.1078 C.3       1 <0>        -0.1800 
     24 H1          4.6874   23.1182   22.8239 H         1 <0>         0.0600 
     25 H2          6.2857   23.2952   22.0795 H         1 <0>         0.0600 
     26 H3          5.8798   21.8295   22.9752 H         1 <0>         0.0600 
     27 H4          5.9247   25.9692   28.2749 H         1 <0>         0.3000 
     28 H5          8.8123   25.3800   27.5967 H         1 <0>         0.4350 
     29 H6          3.6376   28.7849   30.3476 H         1 <0>         0.2900 
     30 H7          7.8082   22.0431   24.4640 H         1 <0>         0.1150 
     31 H8          4.5857   26.9954   22.7448 H         1 <0>         0.0300 
     32 H9          6.2391   26.7074   23.2646 H         1 <0>         0.0300 
     33 H10         5.4832   25.6099   22.1061 H         1 <0>         0.0300 
     34 H11         5.4785   27.9716   29.3925 H         1 <0>         0.0600 
     35 H12         4.9905   28.7754   27.9437 H         1 <0>         0.0600 
     36 H13         3.3334   26.3838   28.8001 H         1 <0>         0.0600 
     37 H14         2.9284   28.4265   26.8576 H         1 <0>         0.0600 
     38 H15         1.7720   27.2425   27.4361 H         1 <0>         0.0600 
     39 H16         2.1785   30.0683   28.4369 H         1 <0>         0.0600 
     40 H17         0.6513   29.2433   28.1219 H         1 <0>         0.0600 
     41 H18         1.5194   29.4121   30.6714 H         1 <0>         0.0600 
     42 H19         0.9227   27.8525   30.0918 H         1 <0>         0.0600 
     43 H20         2.5520   27.3797   32.0674 H         1 <0>         0.0600 
     44 H21         2.6854   26.0905   30.9063 H         1 <0>         0.0600 
     45 H22         4.6529   26.1799   32.5189 H         1 <0>         0.0600 
     46 H23         5.1943   26.4115   30.8630 H         1 <0>         0.0600 
     47 H24         5.0785   27.7798   31.9304 H         1 <0>         0.0600 
     48 H25         9.8777   23.5572   26.8222 H         1 <0>         0.0600 
     49 H26         9.4875   22.0432   26.0717 H         1 <0>         0.0600 
     50 H27         9.6981   21.7851   28.5513 H         1 <0>         0.0600 
     51 H28         8.0741   21.3804   28.0345 H         1 <0>         0.0600 
     52 H29         8.4010   22.9267   28.8113 H         1 <0>         0.0600 
@<TRIPOS>BOND
     1    1   10 1    
     2    1   24 1    
     3    1   25 1    
     4    1   26 1    
     5    2    5 ar   
     6    2    4 1    
     7    2   13 ar   
     8    3   14 am   BACKBONE|DICT|INTERRES
     9    3   15 1    
    10    3   27 1    
    11    4   28 1    
    12    5   22 1    
    13    5    8 ar   
    14    6   16 1    
    15    6   19 1    
    16    6   20 1    
    17    6   29 1    
    18    7   11 1    
    19    7   12 1    
    20    8   10 ar   
    21    8   30 1    
    22    9   14 2    
    23   10   11 ar   
    24   11   13 ar   
    25   12   31 1    
    26   12   32 1    
    27   12   33 1    
    28   13   14 1    
    29   15   16 1    
    30   15   34 1    
    31   15   35 1    
    32   16   17 1    
    33   16   36 1    
    34   17   18 1    
    35   17   37 1    
    36   17   38 1    
    37   18   19 1    
    38   18   39 1    
    39   18   40 1    
    40   19   41 1    
    41   19   42 1    
    42   20   21 1    
    43   20   43 1    
    44   20   44 1    
    45   21   45 1    
    46   21   46 1    
    47   21   47 1    
    48   22   23 1    
    49   22   48 1    
    50   22   49 1    
    51   23   50 1    
    52   23   51 1    
    53   23   52 1    
@<TRIPOS>SUBSTRUCTURE
     1 <0>         1 GROUP             0       ****    0 ROOT    
@<TRIPOS>MOLECULE
*****
52   53    1
SMALL
USER_CHARGES


@<TRIPOS>ATOM
      1 C1          5.7310   23.3339   22.8803 C.3       1 <0>        -0.0650 
      2 C2          6.9700   25.2017   26.5937 C.ar      1 <0>         0.1500 
      3 N1          5.2018   27.4762   27.3734 N.am      1 <0>        -0.5000 
      4 O1          7.4782   25.8092   27.7059 O.3       1 <0>        -0.5850 
      5 C3          7.3896   23.8864   26.2790 C.ar      1 <0>        -0.1150 
      6 N2          2.8449   28.3766   29.2823 N.4       1 <0>        -0.1000 
      7 O2          5.0701   26.0441   23.5286 O.3       1 <0>        -0.2850 
      8 C4          6.9501   23.2896   25.0842 C.ar      1 <0>        -0.1150 
      9 O3          5.4756   28.1797   25.2629 O.2       1 <0>        -0.5000 
     10 C5          6.1422   24.0002   24.1805 C.ar      1 <0>        -0.1150 
     11 C6          5.7428   25.3229   24.4825 C.ar      1 <0>         0.0850 
     12 C7          5.9699   26.7171   22.6545 C.3       1 <0>         0.1100 
     13 C8          6.0829   25.9076   25.7340 C.ar      1 <0>        -0.1150 
     14 C9          5.5707   27.2850   26.0977 C.2       1 <0>         0.6150 
     15 C10         4.9132   28.7985   27.9200 C.3       1 <0>         0.0800 
     16 C11         4.2769   28.7678   29.3231 C.3       1 <0>         0.2100 
     17 C12         4.9710   27.8439   30.3431 C.3       1 <0>        -0.1200 
     18 C13         3.9150   26.8133   30.7342 C.3       1 <0>        -0.1200 
     19 C14         2.5871   27.5046   30.4483 C.3       1 <0>         0.1500 
     20 C15         1.9117   29.5261   29.1656 C.3       1 <0>         0.1500 
     21 C16         0.4770   29.0887   28.8414 C.3       1 <0>        -0.1800 
     22 C17         8.2929   23.0768   27.2041 C.3       1 <0>        -0.0050 
     23 C18         9.6955   22.8451   26.6395 C.3       1 <0>        -0.1800 
     24 H1          4.7381   23.6593   22.5702 H         1 <0>         0.0600 
     25 H2          6.4444   23.5787   22.0938 H         1 <0>         0.0600 
     26 H3          5.7073   22.2492   22.9898 H         1 <0>         0.0600 
     27 H4          5.3626   26.7109   28.0150 H         1 <0>         0.3000 
     28 H5          8.4328   25.7796   27.7055 H         1 <0>         0.4350 
     29 H6          2.7401   27.8008   28.4594 H         1 <0>         0.2900 
     30 H7          7.2710   22.2875   24.8424 H         1 <0>         0.1150 
     31 H8          5.4401   27.3699   21.9608 H         1 <0>         0.0300 
     32 H9          6.6817   27.3395   23.1974 H         1 <0>         0.0300 
     33 H10         6.5506   25.9912   22.0901 H         1 <0>         0.0300 
     34 H11         5.8570   29.3448   27.9595 H         1 <0>         0.0600 
     35 H12         4.2733   29.3614   27.2376 H         1 <0>         0.0600 
     36 H13         4.3395   29.7819   29.7059 H         1 <0>         0.0600 
     37 H14         5.8804   27.3736   29.9678 H         1 <0>         0.0600 
     38 H15         5.2603   28.4235   31.2210 H         1 <0>         0.0600 
     39 H16         4.0101   25.9271   30.1058 H         1 <0>         0.0600 
     40 H17         4.0059   26.5057   31.7757 H         1 <0>         0.0600 
     41 H18         1.7888   26.7887   30.2501 H         1 <0>         0.0600 
     42 H19         2.2783   28.1046   31.3059 H         1 <0>         0.0600 
     43 H20         1.9298   30.1210   30.0810 H         1 <0>         0.0600 
     44 H21         2.2579   30.1806   28.3663 H         1 <0>         0.0600 
     45 H22        -0.1659   29.9600   28.7115 H         1 <0>         0.0600 
     46 H23         0.4359   28.5081   27.9194 H         1 <0>         0.0600 
     47 H24         0.0481   28.4854   29.6421 H         1 <0>         0.0600 
     48 H25         7.8396   22.1015   27.3602 H         1 <0>         0.0600 
     49 H26         8.3636   23.5329   28.1911 H         1 <0>         0.0600 
     50 H27        10.2783   22.2297   27.3204 H         1 <0>         0.0600 
     51 H28        10.2313   23.7798   26.5063 H         1 <0>         0.0600 
     52 H29         9.6647   22.3401   25.6741 H         1 <0>         0.0600 
@<TRIPOS>BOND
     1    1   10 1    
     2    1   24 1    
     3    1   25 1    
     4    1   26 1    
     5    2    5 ar   
     6    2    4 1    
     7    2   13 ar   
     8    3   14 am   BACKBONE|DICT|INTERRES
     9    3   15 1    
    10    3   27 1    
    11    4   28 1    
    12    5   22 1    
    13    5    8 ar   
    14    6   16 1    
    15    6   19 1    
    16    6   20 1    
    17    6   29 1    
    18    7   11 1    
    19    7   12 1    
    20    8   10 ar   
    21    8   30 1    
    22    9   14 2    
    23   10   11 ar   
    24   11   13 ar   
    25   12   31 1    
    26   12   32 1    
    27   12   33 1    
    28   13   14 1    
    29   15   16 1    
    30   15   34 1    
    31   15   35 1    
    32   16   17 1    
    33   16   36 1    
    34   17   18 1    
    35   17   37 1    
    36   17   38 1    
    37   18   19 1    
    38   18   39 1    
    39   18   40 1    
    40   19   41 1    
    41   19   42 1    
    42   20   21 1    
    43   20   43 1    
    44   20   44 1    
    45   21   45 1    
    46   21   46 1    
    47   21   47 1    
    48   22   23 1    
    49   22   48 1    
    50   22   49 1    
    51   23   50 1    
    52   23   51 1    
    53   23   52 1    
@<TRIPOS>SUBSTRUCTURE
     1 <0>         1 GROUP             0       ****    0 ROOT    
@<TRIPOS>MOLECULE
*****
52   53    1
SMALL
USER_CHARGES


@<TRIPOS>ATOM
      1 C1          3.9097   26.7389   23.9795 C.3       1 <0>        -0.0650 
      2 C2          7.1952   24.4508   25.6371 C.ar      1 <0>         0.1500 
      3 N1          8.4977   22.9793   23.3069 N.am      1 <0>        -0.5000 
      4 O1          8.2784   23.7842   26.1414 O.3       1 <0>        -0.5850 
      5 C3          6.6681   25.5615   26.3477 C.ar      1 <0>        -0.1150 
      6 N2         10.5355   19.7675   23.2603 N.4       1 <0>        -0.1000 
      7 O2          4.8665   24.3411   22.7753 O.3       1 <0>        -0.2850 
      8 C4          5.6159   26.3074   25.7833 C.ar      1 <0>        -0.1150 
      9 O3          6.5058   21.9613   23.2076 O.2       1 <0>        -0.5000 
     10 C5          5.0395   25.9187   24.5647 C.ar      1 <0>        -0.1150 
     11 C6          5.5143   24.7703   23.8975 C.ar      1 <0>         0.0850 
     12 C7          3.8782   23.3856   23.1074 C.3       1 <0>         0.1100 
     13 C8          6.6334   24.0587   24.3900 C.ar      1 <0>        -0.1150 
     14 C9          7.1963   22.9063   23.5898 C.2       1 <0>         0.6150 
     15 C10         9.2999   21.8888   22.7776 C.3       1 <0>         0.0800 
     16 C11         9.7127   20.8674   23.8445 C.3       1 <0>         0.2100 
     17 C12        10.5485   21.4920   24.9736 C.3       1 <0>        -0.1200 
     18 C13        11.9253   20.8640   24.8238 C.3       1 <0>        -0.1200 
     19 C14        11.6380   19.5119   24.2017 C.3       1 <0>         0.1500 
     20 C15         9.8535   18.5126   22.8389 C.3       1 <0>         0.1500 
     21 C16         8.7372   18.7114   21.8061 C.3       1 <0>        -0.1800 
     22 C17         7.2480   25.9994   27.6889 C.3       1 <0>        -0.0050 
     23 C18         6.2026   26.4126   28.7386 C.3       1 <0>        -0.1800 
     24 H1          4.0850   26.9004   22.9162 H         1 <0>         0.0600 
     25 H2          2.9587   26.2237   24.1076 H         1 <0>         0.0600 
     26 H3          3.8357   27.7180   24.4540 H         1 <0>         0.0600 
     27 H4          9.0154   23.7873   23.6762 H         1 <0>         0.3000 
     28 H5          9.0786   24.1740   25.7933 H         1 <0>         0.4350 
     29 H6         10.9673   20.1615   22.4374 H         1 <0>         0.2900 
     30 H7          5.2361   27.1834   26.2865 H         1 <0>         0.1150 
     31 H8          3.4611   22.9798   22.1869 H         1 <0>         0.0300 
     32 H9          4.2773   22.5798   23.7074 H         1 <0>         0.0300 
     33 H10         3.0772   23.8254   23.7064 H         1 <0>         0.0300 
     34 H11         8.6795   21.3430   22.0975 H         1 <0>         0.0600 
     35 H12        10.1517   22.2913   22.2259 H         1 <0>         0.0600 
     36 H13         8.8038   20.4599   24.2754 H         1 <0>         0.0600 
     37 H14        10.6032   22.5794   24.9322 H         1 <0>         0.0600 
     38 H15        10.1050   21.2418   25.9384 H         1 <0>         0.0600 
     39 H16        12.5295   21.4384   24.1230 H         1 <0>         0.0600 
     40 H17        12.4656   20.7987   25.7666 H         1 <0>         0.0600 
     41 H18        12.5025   19.0836   23.6939 H         1 <0>         0.0600 
     42 H19        11.3160   18.8158   24.9793 H         1 <0>         0.0600 
     43 H20        10.6094   17.8675   22.3890 H         1 <0>         0.0600 
     44 H21         9.4752   17.9580   23.6968 H         1 <0>         0.0600 
     45 H22         8.3752   17.7450   21.4519 H         1 <0>         0.0600 
     46 H23         7.8806   19.2346   22.2320 H         1 <0>         0.0600 
     47 H24         9.0905   19.2652   20.9353 H         1 <0>         0.0600 
     48 H25         7.9145   26.8408   27.5071 H         1 <0>         0.0600 
     49 H26         7.8552   25.1981   28.1069 H         1 <0>         0.0600 
     50 H27         6.6767   26.6192   29.6984 H         1 <0>         0.0600 
     51 H28         5.4665   25.6262   28.8955 H         1 <0>         0.0600 
     52 H29         5.6685   27.3176   28.4506 H         1 <0>         0.0600 
@<TRIPOS>BOND
     1    1   10 1    
     2    1   24 1    
     3    1   25 1    
     4    1   26 1    
     5    2    5 ar   
     6    2    4 1    
     7    2   13 ar   
     8    3   14 am   BACKBONE|DICT|INTERRES
     9    3   15 1    
    10    3   27 1    
    11    4   28 1    
    12    5   22 1    
    13    5    8 ar   
    14    6   16 1    
    15    6   19 1    
    16    6   20 1    
    17    6   29 1    
    18    7   11 1    
    19    7   12 1    
    20    8   10 ar   
    21    8   30 1    
    22    9   14 2    
    23   10   11 ar   
    24   11   13 ar   
    25   12   31 1    
    26   12   32 1    
    27   12   33 1    
    28   13   14 1    
    29   15   16 1    
    30   15   34 1    
    31   15   35 1    
    32   16   17 1    
    33   16   36 1    
    34   17   18 1    
    35   17   37 1    
    36   17   38 1    
    37   18   19 1    
    38   18   39 1    
    39   18   40 1    
    40   19   41 1    
    41   19   42 1    
    42   20   21 1    
    43   20   43 1    
    44   20   44 1    
    45   21   45 1    
    46   21   46 1    
    47   21   47 1    
    48   22   23 1    
    49   22   48 1    
    50   22   49 1    
    51   23   50 1    
    52   23   51 1    
    53   23   52 1    
@<TRIPOS>SUBSTRUCTURE
     1 <0>         1 GROUP             0       ****    0 ROOT    
@<TRIPOS>MOLECULE
*****
52   53    1
SMALL
USER_CHARGES


@<TRIPOS>ATOM
      1 C1          5.7732   23.4100   22.7776 C.3       1 <0>        -0.0650 
      2 C2          6.7443   25.1136   26.6471 C.ar      1 <0>         0.1500 
      3 N1          5.0131   27.4544   27.3513 N.am      1 <0>        -0.5000 
      4 O1          7.0784   25.6169   27.8724 O.3       1 <0>        -0.5850 
      5 C3          7.2328   23.8355   26.2801 C.ar      1 <0>        -0.1150 
      6 N2          2.7219   28.3830   29.2877 N.4       1 <0>        -0.1000 
      7 O2          5.0603   26.0932   23.4889 O.3       1 <0>        -0.2850 
      8 C4          6.8865   23.2960   25.0290 C.ar      1 <0>        -0.1150 
      9 O3          5.4783   28.1797   25.2843 O.2       1 <0>        -0.5000 
     10 C5          6.1149   24.0336   24.1177 C.ar      1 <0>        -0.1150 
     11 C6          5.6932   25.3426   24.4481 C.ar      1 <0>         0.0850 
     12 C7          5.9893   26.7464   22.6316 C.3       1 <0>         0.1100 
     13 C8          5.9532   25.8764   25.7408 C.ar      1 <0>        -0.1150 
     14 C9          5.4623   27.2642   26.1011 C.2       1 <0>         0.6150 
     15 C10         4.7659   28.7858   27.8994 C.3       1 <0>         0.0800 
     16 C11         4.1533   28.7699   29.3126 C.3       1 <0>         0.2100 
     17 C12         4.8603   27.8456   30.3234 C.3       1 <0>        -0.1200 
     18 C13         3.7995   26.8419   30.7634 C.3       1 <0>        -0.1200 
     19 C14         2.4747   27.5393   30.4749 C.3       1 <0>         0.1500 
     20 C15         1.7933   29.5352   29.1524 C.3       1 <0>         0.1500 
     21 C16         0.3552   29.0982   28.8399 C.3       1 <0>        -0.1800 
     22 C17         8.1451   23.0176   27.1888 C.3       1 <0>        -0.0050 
     23 C18         9.5558   22.8276   26.6238 C.3       1 <0>        -0.1800 
     24 H1          4.8098   23.7685   22.4175 H         1 <0>         0.0600 
     25 H2          6.5401   23.6518   22.0432 H         1 <0>         0.0600 
     26 H3          5.7126   22.3249   22.8596 H         1 <0>         0.0600 
     27 H4          5.0503   26.6669   27.9850 H         1 <0>         0.3000 
     28 H5          7.4767   26.4743   27.8076 H         1 <0>         0.4350 
     29 H6          2.6068   27.7887   28.4790 H         1 <0>         0.2900 
     30 H7          7.2483   22.3169   24.7508 H         1 <0>         0.1150 
     31 H8          5.4781   27.3786   21.9063 H         1 <0>         0.0300 
     32 H9          6.6792   27.3795   23.1872 H         1 <0>         0.0300 
     33 H10         6.5954   26.0179   22.0990 H         1 <0>         0.0300 
     34 H11         5.7158   29.3210   27.9252 H         1 <0>         0.0600 
     35 H12         4.1251   29.3551   27.2240 H         1 <0>         0.0600 
     36 H13         4.2168   29.7810   29.7059 H         1 <0>         0.0600 
     37 H14         5.7443   27.3479   29.9259 H         1 <0>         0.0600 
     38 H15         5.1914   28.4309   31.1828 H         1 <0>         0.0600 
     39 H16         3.8796   25.9317   30.1674 H         1 <0>         0.0600 
     40 H17         3.9006   26.5792   31.8170 H         1 <0>         0.0600 
     41 H18         1.6614   26.8296   30.3154 H         1 <0>         0.0600 
     42 H19         2.1976   28.1764   31.3125 H         1 <0>         0.0600 
     43 H20         1.8153   30.1447   30.0574 H         1 <0>         0.0600 
     44 H21         2.1386   30.1789   28.3441 H         1 <0>         0.0600 
     45 H22        -0.2843   29.9691   28.6875 H         1 <0>         0.0600 
     46 H23         0.3098   28.4958   27.9322 H         1 <0>         0.0600 
     47 H24        -0.0748   28.5154   29.6550 H         1 <0>         0.0600 
     48 H25         7.7001   22.0348   27.3064 H         1 <0>         0.0600 
     49 H26         8.2128   23.4469   28.1875 H         1 <0>         0.0600 
     50 H27        10.1620   22.2174   27.2903 H         1 <0>         0.0600 
     51 H28        10.0644   23.7797   26.5066 H         1 <0>         0.0600 
     52 H29         9.5399   22.3410   25.6488 H         1 <0>         0.0600 
@<TRIPOS>BOND
     1    1   10 1    
     2    1   24 1    
     3    1   25 1    
     4    1   26 1    
     5    2    5 ar   
     6    2    4 1    
     7    2   13 ar   
     8    3   14 am   BACKBONE|DICT|INTERRES
     9    3   15 1    
    10    3   27 1    
    11    4   28 1    
    12    5   22 1    
    13    5    8 ar   
    14    6   16 1    
    15    6   19 1    
    16    6   20 1    
    17    6   29 1    
    18    7   11 1    
    19    7   12 1    
    20    8   10 ar   
    21    8   30 1    
    22    9   14 2    
    23   10   11 ar   
    24   11   13 ar   
    25   12   31 1    
    26   12   32 1    
    27   12   33 1    
    28   13   14 1    
    29   15   16 1    
    30   15   34 1    
    31   15   35 1    
    32   16   17 1    
    33   16   36 1    
    34   17   18 1    
    35   17   37 1    
    36   17   38 1    
    37   18   19 1    
    38   18   39 1    
    39   18   40 1    
    40   19   41 1    
    41   19   42 1    
    42   20   21 1    
    43   20   43 1    
    44   20   44 1    
    45   21   45 1    
    46   21   46 1    
    47   21   47 1    
    48   22   23 1    
    49   22   48 1    
    50   22   49 1    
    51   23   50 1    
    52   23   51 1    
    53   23   52 1    
@<TRIPOS>SUBSTRUCTURE
     1 <0>         1 GROUP             0       ****    0 ROOT    
@<TRIPOS>MOLECULE
*****
52   53    1
SMALL
USER_CHARGES


@<TRIPOS>ATOM
      1 C1          4.2005   27.2439   24.1141 C.3       1 <0>        -0.0650 
      2 C2          7.0172   24.5413   26.0155 C.ar      1 <0>         0.1500 
      3 N1          8.2251   22.8371   23.7339 N.am      1 <0>        -0.5000 
      4 O1          7.9392   23.7235   26.6124 O.3       1 <0>        -0.5850 
      5 C3          6.5758   25.7144   26.6834 C.ar      1 <0>        -0.1150 
      6 N2         10.5192   19.8778   23.0517 N.4       1 <0>        -0.1000 
      7 O2          5.2034   24.8902   22.8188 O.3       1 <0>        -0.2850 
      8 C4          5.6615   26.5780   26.0515 C.ar      1 <0>        -0.1150 
      9 O3          6.0644   22.1801   23.5893 O.2       1 <0>        -0.5000 
     10 C5          5.1732   26.2857   24.7700 C.ar      1 <0>        -0.1150 
     11 C6          5.6079   25.1202   24.1046 C.ar      1 <0>         0.0850 
     12 C7          6.1507   25.3747   21.8790 C.3       1 <0>         0.1100 
     13 C8          6.5142   24.2285   24.7257 C.ar      1 <0>        -0.1150 
     14 C9          6.9163   22.9762   23.9910 C.2       1 <0>         0.6150 
     15 C10         8.8239   21.7704   22.9340 C.3       1 <0>         0.0800 
     16 C11         9.7803   20.9327   23.7913 C.3       1 <0>         0.2100 
     17 C12        10.8721   21.7909   24.4208 C.3       1 <0>        -0.1200 
     18 C13        12.0795   20.8909   24.5827 C.3       1 <0>        -0.1200 
     19 C14        11.7109   19.5862   23.8764 C.3       1 <0>         0.1500 
     20 C15         9.7626   18.6588   22.6581 C.3       1 <0>         0.1500 
     21 C16         9.2952   18.6955   21.2009 C.3       1 <0>        -0.1800 
     22 C17         7.0784   26.0737   28.0730 C.3       1 <0>        -0.0050 
     23 C18         5.9973   26.5668   29.0491 C.3       1 <0>        -0.1800 
     24 H1          4.6909   27.7890   23.3091 H         1 <0>         0.0600 
     25 H2          3.3521   26.6975   23.7062 H         1 <0>         0.0600 
     26 H3          3.8116   27.9738   24.8249 H         1 <0>         0.0600 
     27 H4          8.8504   23.5753   24.0819 H         1 <0>         0.3000 
     28 H5          8.5185   24.2058   27.1850 H         1 <0>         0.4350 
     29 H6         10.8694   20.3057   22.2081 H         1 <0>         0.2900 
     30 H7          5.3336   27.4813   26.5423 H         1 <0>         0.1150 
     31 H8          5.9290   24.9811   20.8915 H         1 <0>         0.0300 
     32 H9          6.0851   26.4608   21.8298 H         1 <0>         0.0300 
     33 H10         7.1805   25.1048   22.1172 H         1 <0>         0.0300 
     34 H11         8.0560   21.1274   22.5073 H         1 <0>         0.0600 
     35 H12         9.3622   22.2324   22.1073 H         1 <0>         0.0600 
     36 H13         9.2137   20.4757   24.5945 H         1 <0>         0.0600 
     37 H14        11.1482   22.5796   23.7242 H         1 <0>         0.0600 
     38 H15        10.5603   22.2597   25.3559 H         1 <0>         0.0600 
     39 H16        12.9310   21.3797   24.1085 H         1 <0>         0.0600 
     40 H17        12.3091   20.7245   25.6352 H         1 <0>         0.0600 
     41 H18        12.5308   19.1870   23.2798 H         1 <0>         0.0600 
     42 H19        11.4547   18.8461   24.6342 H         1 <0>         0.0600 
     43 H20        10.4079   17.7861   22.7627 H         1 <0>         0.0600 
     44 H21         8.9088   18.4843   23.3060 H         1 <0>         0.0600 
     45 H22         8.9422   17.7104   20.8975 H         1 <0>         0.0600 
     46 H23         8.4654   19.3797   21.0583 H         1 <0>         0.0600 
     47 H24        10.0984   18.9794   20.5195 H         1 <0>         0.0600 
     48 H25         7.8680   26.8199   27.9764 H         1 <0>         0.0600 
     49 H26         7.5149   25.1838   28.5059 H         1 <0>         0.0600 
     50 H27         6.4225   26.7303   30.0406 H         1 <0>         0.0600 
     51 H28         5.2017   25.8277   29.1526 H         1 <0>         0.0600 
     52 H29         5.5493   27.5091   28.7371 H         1 <0>         0.0600 
@<TRIPOS>BOND
     1    1   10 1    
     2    1   24 1    
     3    1   25 1    
     4    1   26 1    
     5    2    5 ar   
     6    2    4 1    
     7    2   13 ar   
     8    3   14 am   BACKBONE|DICT|INTERRES
     9    3   15 1    
    10    3   27 1    
    11    4   28 1    
    12    5   22 1    
    13    5    8 ar   
    14    6   16 1    
    15    6   19 1    
    16    6   20 1    
    17    6   29 1    
    18    7   11 1    
    19    7   12 1    
    20    8   10 ar   
    21    8   30 1    
    22    9   14 2    
    23   10   11 ar   
    24   11   13 ar   
    25   12   31 1    
    26   12   32 1    
    27   12   33 1    
    28   13   14 1    
    29   15   16 1    
    30   15   34 1    
    31   15   35 1    
    32   16   17 1    
    33   16   36 1    
    34   17   18 1    
    35   17   37 1    
    36   17   38 1    
    37   18   19 1    
    38   18   39 1    
    39   18   40 1    
    40   19   41 1    
    41   19   42 1    
    42   20   21 1    
    43   20   43 1    
    44   20   44 1    
    45   21   45 1    
    46   21   46 1    
    47   21   47 1    
    48   22   23 1    
    49   22   48 1    
    50   22   49 1    
    51   23   50 1    
    52   23   51 1    
    53   23   52 1    
@<TRIPOS>SUBSTRUCTURE
     1 <0>         1 GROUP             0       ****    0 ROOT    
