@<TRIPOS>MOLECULE
D2B_187_3NXO
46   48    1
SMALL
USER_CHARGES


@<TRIPOS>ATOM
      1 C1         15.1189    7.8692   -3.4932 C.3       1 <0>        -0.1800 
      2 C2         15.6775    5.6659   -4.5820 C.3       1 <0>        -0.1800 
      3 C3         16.0164    1.8057   -3.4628 C.3       1 <0>         0.1100 
      4 C4         12.0108    4.4613   -1.8812 C.ar      1 <0>        -0.1150 
      5 C5         12.1824    3.1266   -2.2774 C.ar      1 <0>        -0.1150 
      6 C6         13.1282    5.3065   -1.7624 C.ar      1 <0>        -0.1150 
      7 C7         13.4697    2.6434   -2.5669 C.ar      1 <0>        -0.1150 
      8 C8         15.8076    4.3931    0.9444 C.2       1 <0>        -0.0190 
      9 C9         16.8540    5.4001   -1.2209 C.3       1 <0>        -0.0050 
     10 C10        14.4300    4.8392   -2.0504 C.ar      1 <0>        -0.1150 
     11 C11        14.6057    3.4892   -2.4712 C.ar      1 <0>         0.0850 
     12 C12        16.6371    5.2638    0.2703 C.2       1 <0>        -0.1430 
     13 C13        17.1872    5.9836    1.3741 C.ar      1 <0>        -0.3830 
     14 C14        18.1203    7.0481    1.4294 C.ar      1 <0>         0.8640 
     15 C15        16.6780    5.5537    2.6080 C.ar      1 <0>         0.6500 
     16 C16        17.8600    7.0459    3.7327 C.ar      1 <0>         1.0420 
     17 C17        15.8960    6.5491   -3.3438 C.3       1 <0>        -0.0600 
     18 C18        15.5827    5.8598   -1.9818 C.3       1 <0>         0.0550 
     19 N1         18.7164    7.6616    0.3335 N.pl3     1 <0>        -0.9200 
     20 N2         18.1773    7.6537    4.9169 N.pl3     1 <0>        -0.9200 
     21 N3         18.4416    7.5479    2.6427 N.ar      1 <0>        -0.8390 
     22 N4         16.9771    6.0617    3.8360 N.ar      1 <0>        -0.8390 
     23 O1         15.7998    4.5314    2.3210 O.3       1 <0>        -0.1900 
     24 O2         15.8723    3.0563   -2.8028 O.3       1 <0>        -0.2850 
     25 H1         14.0416    7.7021   -3.4902 H         1 <0>         0.0600 
     26 H2         15.3562    8.5562   -2.6819 H         1 <0>         0.0600 
     27 H3         15.3781    8.3751   -4.4236 H         1 <0>         0.0600 
     28 H4         14.6837    5.2234   -4.6222 H         1 <0>         0.0600 
     29 H5         15.7769    6.2626   -5.4814 H         1 <0>         0.0600 
     30 H6         16.4100    4.8616   -4.6323 H         1 <0>         0.0600 
     31 H7         17.0549    1.6788   -3.7696 H         1 <0>         0.0300 
     32 H8         15.7652    0.9746   -2.8039 H         1 <0>         0.0300 
     33 H9         15.3989    1.7517   -4.3605 H         1 <0>         0.0300 
     34 H10        11.0215    4.8368   -1.6659 H         1 <0>         0.1150 
     35 H11        11.3277    2.4717   -2.3660 H         1 <0>         0.1150 
     36 H12        12.9767    6.3334   -1.4644 H         1 <0>         0.1150 
     37 H13        13.5557    1.6126   -2.8760 H         1 <0>         0.1150 
     38 H14        15.1435    3.6174    0.5917 H         1 <0>         0.1420 
     39 H15        17.2750    4.4760   -1.6074 H         1 <0>         0.0600 
     40 H16        17.6388    6.1329   -1.3788 H         1 <0>         0.0600 
     41 H17        16.9452    6.8466   -3.3524 H         1 <0>         0.0600 
     42 H18        15.2129    6.6631   -1.3418 H         1 <0>         0.0600 
     43 H19        18.6202    7.2931   -0.6011 H         1 <0>         0.3600 
     44 H20        19.4253    8.3691    0.4778 H         1 <0>         0.3600 
     45 H21        18.7706    8.4680    4.8634 H         1 <0>         0.3600 
     46 H22        17.4776    7.6618    5.6396 H         1 <0>         0.3600 
@<TRIPOS>BOND
     1    1   17 1    
     2    1   25 1    
     3    1   26 1    
     4    1   27 1    
     5    2   17 1    
     6    2   28 1    
     7    2   29 1    
     8    2   30 1    
     9    3   24 1    
    10    3   31 1    
    11    3   32 1    
    12    3   33 1    
    13    4    5 ar   
    14    4    6 ar   
    15    4   34 1    
    16    5    7 ar   
    17    5   35 1    
    18    6   10 ar   
    19    6   36 1    
    20    7   11 ar   
    21    7   37 1    
    22    8   12 2    
    23    8   23 1    
    24    8   38 1    
    25    9   12 1    
    26    9   18 1    
    27    9   39 1    
    28    9   40 1    
    29   10   11 ar   
    30   10   18 1    
    31   11   24 1    
    32   12   13 1    
    33   13   14 ar   
    34   13   15 ar   
    35   14   19 1    
    36   14   21 ar   
    37   15   22 ar   
    38   15   23 1    
    39   16   20 1    
    40   16   21 ar   
    41   16   22 ar   
    42   17   18 1    
    43   17   41 1    
    44   18   42 1    
    45   19   43 1    
    46   19   44 1    
    47   20   45 1    
    48   20   46 1    
@<TRIPOS>SUBSTRUCTURE
     1 <0>         1 GROUP             0       ****    0 ROOT    
@<TRIPOS>MOLECULE
D2B_187_3NXO
46   48    1
SMALL
USER_CHARGES


@<TRIPOS>ATOM
      1 C1         14.1999    6.5151   -2.1954 C.3       1 <0>        -0.1800 
      2 C2         15.9413    7.7184   -3.5814 C.3       1 <0>        -0.1800 
      3 C3         18.8692    8.0492   -0.1595 C.3       1 <0>         0.1100 
      4 C4         15.8909    4.4687    1.5300 C.ar      1 <0>        -0.1150 
      5 C5         16.9828    4.9025    2.3013 C.ar      1 <0>        -0.1150 
      6 C6         15.8249    4.7893    0.1613 C.ar      1 <0>        -0.1150 
      7 C7         18.0131    5.6450    1.6968 C.ar      1 <0>        -0.1150 
      8 C8         19.2812    4.6600   -3.2324 C.2       1 <0>        -0.0190 
      9 C9         16.6737    4.6781   -2.8659 C.3       1 <0>        -0.0050 
     10 C10        16.8422    5.5535   -0.4564 C.ar      1 <0>        -0.1150 
     11 C11        17.9510    5.9671    0.3252 C.ar      1 <0>         0.0850 
     12 C12        18.0180    4.0992   -3.2584 C.2       1 <0>        -0.1430 
     13 C13        18.3239    2.8490   -3.8644 C.ar      1 <0>        -0.3830 
     14 C14        17.4906    1.7524   -4.1861 C.ar      1 <0>         0.8640 
     15 C15        19.6737    2.7250   -4.2201 C.ar      1 <0>         0.6500 
     16 C16        19.3379    0.7496   -5.1525 C.ar      1 <0>         1.0420 
     17 C17        15.6613    6.9984   -2.2485 C.3       1 <0>        -0.0600 
     18 C18        16.7365    5.9184   -1.9439 C.3       1 <0>         0.0550 
     19 N1         16.1366    1.6606   -3.8817 N.pl3     1 <0>        -0.9200 
     20 N2         19.7774   -0.3170   -5.8814 N.pl3     1 <0>        -0.9200 
     21 N3         18.0437    0.7102   -4.8365 N.ar      1 <0>        -0.8390 
     22 N4         20.2507    1.6843   -4.8833 N.ar      1 <0>        -0.8390 
     23 O1         20.2832    3.8850   -3.7919 O.3       1 <0>        -0.1900 
     24 O2         18.9976    6.6440   -0.2375 O.3       1 <0>        -0.2850 
     25 H1         14.0259    5.6732   -2.8657 H         1 <0>         0.0600 
     26 H2         13.9057    6.2180   -1.1896 H         1 <0>         0.0600 
     27 H3         13.5190    7.3138   -2.4922 H         1 <0>         0.0600 
     28 H4         15.7607    7.0720   -4.4402 H         1 <0>         0.0600 
     29 H5         15.2989    8.5917   -3.6951 H         1 <0>         0.0600 
     30 H6         16.9755    8.0617   -3.6398 H         1 <0>         0.0600 
     31 H7         19.7110    8.4960   -0.6815 H         1 <0>         0.0300 
     32 H8         17.9574    8.3983   -0.6422 H         1 <0>         0.0300 
     33 H9         18.8790    8.3933    0.8746 H         1 <0>         0.0300 
     34 H10        15.1057    3.8852    1.9874 H         1 <0>         0.1150 
     35 H11        17.0361    4.6520    3.3501 H         1 <0>         0.1150 
     36 H12        14.9825    4.4358   -0.4129 H         1 <0>         0.1150 
     37 H13        18.8614    5.9625    2.2832 H         1 <0>         0.1150 
     38 H14        19.6434    5.6183   -2.8872 H         1 <0>         0.1420 
     39 H15        16.0463    3.9059   -2.4249 H         1 <0>         0.0600 
     40 H16        16.1964    4.9388   -3.8099 H         1 <0>         0.0600 
     41 H17        15.7760    7.7618   -1.4816 H         1 <0>         0.0600 
     42 H18        17.6591    6.4346   -2.1965 H         1 <0>         0.0600 
     43 H19        15.6347    2.5198   -3.7188 H         1 <0>         0.3600 
     44 H20        15.5956    0.9394   -4.3366 H         1 <0>         0.3600 
     45 H21        19.1988   -1.1416   -5.8726 H         1 <0>         0.3600 
     46 H22        20.7727   -0.4288   -5.9971 H         1 <0>         0.3600 
@<TRIPOS>BOND
     1    1   17 1    
     2    1   25 1    
     3    1   26 1    
     4    1   27 1    
     5    2   17 1    
     6    2   28 1    
     7    2   29 1    
     8    2   30 1    
     9    3   24 1    
    10    3   31 1    
    11    3   32 1    
    12    3   33 1    
    13    4    5 ar   
    14    4    6 ar   
    15    4   34 1    
    16    5    7 ar   
    17    5   35 1    
    18    6   10 ar   
    19    6   36 1    
    20    7   11 ar   
    21    7   37 1    
    22    8   12 2    
    23    8   23 1    
    24    8   38 1    
    25    9   12 1    
    26    9   18 1    
    27    9   39 1    
    28    9   40 1    
    29   10   11 ar   
    30   10   18 1    
    31   11   24 1    
    32   12   13 1    
    33   13   14 ar   
    34   13   15 ar   
    35   14   19 1    
    36   14   21 ar   
    37   15   22 ar   
    38   15   23 1    
    39   16   20 1    
    40   16   21 ar   
    41   16   22 ar   
    42   17   18 1    
    43   17   41 1    
    44   18   42 1    
    45   19   43 1    
    46   19   44 1    
    47   20   45 1    
    48   20   46 1    
@<TRIPOS>SUBSTRUCTURE
     1 <0>         1 GROUP             0       ****    0 ROOT    
@<TRIPOS>MOLECULE
D2B_187_3NXO
46   48    1
SMALL
USER_CHARGES


@<TRIPOS>ATOM
      1 C1         15.0333    3.6422   -3.4186 C.3       1 <0>        -0.1800 
      2 C2         15.6949    5.9760   -4.0710 C.3       1 <0>        -0.1800 
      3 C3         14.9226    4.0569    1.0970 C.3       1 <0>         0.1100 
      4 C4         18.9414    6.9891    0.1152 C.ar      1 <0>        -0.1150 
      5 C5         18.1747    6.7692    1.2703 C.ar      1 <0>        -0.1150 
      6 C6         18.6245    6.3112   -1.0718 C.ar      1 <0>        -0.1150 
      7 C7         17.1014    5.8591    1.2345 C.ar      1 <0>        -0.1150 
      8 C8         20.3355    3.8094   -2.9718 C.2       1 <0>        -0.0190 
      9 C9         17.8478    3.2831   -2.4136 C.3       1 <0>        -0.0050 
     10 C10        17.5320    5.4253   -1.1361 C.ar      1 <0>        -0.1150 
     11 C11        16.7738    5.1672    0.0379 C.ar      1 <0>         0.0850 
     12 C12        19.1522    3.1264   -3.1692 C.2       1 <0>        -0.1430 
     13 C13        19.5501    2.2488   -4.2240 C.ar      1 <0>        -0.3830 
     14 C14        18.8500    1.2297   -4.9166 C.ar      1 <0>         0.8640 
     15 C15        20.8829    2.4433   -4.6112 C.ar      1 <0>         0.6500 
     16 C16        20.7768    0.8526   -6.1479 C.ar      1 <0>         1.0420 
     17 C17        15.7771    4.9122   -2.9639 C.3       1 <0>        -0.0600 
     18 C18        17.2537    4.7173   -2.4685 C.3       1 <0>         0.0550 
     19 N1         17.5320    0.8625   -4.6800 N.pl3     1 <0>        -0.9200 
     20 N2         21.3775    0.0920   -7.1121 N.pl3     1 <0>        -0.9200 
     21 N3         19.5052    0.5448   -5.8813 N.ar      1 <0>        -0.8390 
     22 N4         21.5575    1.7712   -5.5807 N.ar      1 <0>        -0.8390 
     23 O1         21.3758    3.4459   -3.8066 O.3       1 <0>        -0.1900 
     24 O2         15.7609    4.2323   -0.0354 O.3       1 <0>        -0.2850 
     25 H1         15.5247    3.1678   -4.2695 H         1 <0>         0.0600 
     26 H2         14.9514    2.9150   -2.6106 H         1 <0>         0.0600 
     27 H3         14.0164    3.8799   -3.7317 H         1 <0>         0.0600 
     28 H4         16.1372    5.6113   -4.9978 H         1 <0>         0.0600 
     29 H5         14.6594    6.2401   -4.2815 H         1 <0>         0.0600 
     30 H6         16.2110    6.8928   -3.7835 H         1 <0>         0.0600 
     31 H7         14.1391    3.3378    0.8550 H         1 <0>         0.0300 
     32 H8         15.4812    3.6619    1.9468 H         1 <0>         0.0300 
     33 H9         14.4378    4.9912    1.3844 H         1 <0>         0.0300 
     34 H10        19.7779    7.6708    0.1256 H         1 <0>         0.1150 
     35 H11        18.4153    7.2888    2.1860 H         1 <0>         0.1150 
     36 H12        19.2407    6.4625   -1.9436 H         1 <0>         0.1150 
     37 H13        16.5491    5.7027    2.1482 H         1 <0>         0.1150 
     38 H14        20.6112    4.5851   -2.2734 H         1 <0>         0.1420 
     39 H15        18.0956    3.0681   -1.3787 H         1 <0>         0.0600 
     40 H16        17.1542    2.4991   -2.6935 H         1 <0>         0.0600 
     41 H17        15.1864    5.3154   -2.1429 H         1 <0>         0.0600 
     42 H18        17.8566    5.2405   -3.2122 H         1 <0>         0.0600 
     43 H19        16.9313    1.4560   -4.1285 H         1 <0>         0.3600 
     44 H20        17.0703    0.2155   -5.3025 H         1 <0>         0.3600 
     45 H21        20.9044   -0.7482   -7.4018 H         1 <0>         0.3600 
     46 H22        22.3895    0.0786   -7.1333 H         1 <0>         0.3600 
@<TRIPOS>BOND
     1    1   17 1    
     2    1   25 1    
     3    1   26 1    
     4    1   27 1    
     5    2   17 1    
     6    2   28 1    
     7    2   29 1    
     8    2   30 1    
     9    3   24 1    
    10    3   31 1    
    11    3   32 1    
    12    3   33 1    
    13    4    5 ar   
    14    4    6 ar   
    15    4   34 1    
    16    5    7 ar   
    17    5   35 1    
    18    6   10 ar   
    19    6   36 1    
    20    7   11 ar   
    21    7   37 1    
    22    8   12 2    
    23    8   23 1    
    24    8   38 1    
    25    9   12 1    
    26    9   18 1    
    27    9   39 1    
    28    9   40 1    
    29   10   11 ar   
    30   10   18 1    
    31   11   24 1    
    32   12   13 1    
    33   13   14 ar   
    34   13   15 ar   
    35   14   19 1    
    36   14   21 ar   
    37   15   22 ar   
    38   15   23 1    
    39   16   20 1    
    40   16   21 ar   
    41   16   22 ar   
    42   17   18 1    
    43   17   41 1    
    44   18   42 1    
    45   19   43 1    
    46   19   44 1    
    47   20   45 1    
    48   20   46 1    
@<TRIPOS>SUBSTRUCTURE
     1 <0>         1 GROUP             0       ****    0 ROOT    
@<TRIPOS>MOLECULE
D2B_187_3NXO
46   48    1
SMALL
USER_CHARGES


@<TRIPOS>ATOM
      1 C1         13.3020    4.3659   -1.0169 C.3       1 <0>        -0.1800 
      2 C2         13.5617    6.6460   -2.0586 C.3       1 <0>        -0.1800 
      3 C3         15.0833    3.7468    2.5786 C.3       1 <0>         0.1100 
      4 C4         18.2783    7.2615    0.8556 C.ar      1 <0>        -0.1150 
      5 C5         18.1616    6.6042    2.0906 C.ar      1 <0>        -0.1150 
      6 C6         17.4754    6.8632   -0.2257 C.ar      1 <0>        -0.1150 
      7 C7         17.2413    5.5526    2.2408 C.ar      1 <0>        -0.1150 
      8 C8         18.4658    4.8101   -2.7201 C.2       1 <0>        -0.0190 
      9 C9         16.0431    4.0652   -1.9538 C.3       1 <0>        -0.0050 
     10 C10        16.5552    5.7995   -0.0980 C.ar      1 <0>        -0.1150 
     11 C11        16.4240    5.1415    1.1559 C.ar      1 <0>         0.0850 
     12 C12        17.3851    3.9522   -2.6534 C.2       1 <0>        -0.1430 
     13 C13        17.8669    2.9001   -3.4852 C.ar      1 <0>        -0.3830 
     14 C14        17.2606    1.6854   -3.8812 C.ar      1 <0>         0.8640 
     15 C15        19.1550    3.1361   -3.9830 C.ar      1 <0>         0.6500 
     16 C16        19.1842    1.2172   -5.0800 C.ar      1 <0>         1.0420 
     17 C17        14.1600    5.6520   -1.0479 C.3       1 <0>        -0.0600 
     18 C18        15.6876    5.4304   -1.3092 C.3       1 <0>         0.0550 
     19 N1         15.9934    1.2643   -3.4908 N.pl3     1 <0>        -0.9200 
     20 N2         19.8194    0.3118   -5.8824 N.pl3     1 <0>        -0.9200 
     21 N3         17.9604    0.8610   -4.6865 N.ar      1 <0>        -0.8390 
     22 N4         19.8789    2.3200   -4.7982 N.ar      1 <0>        -0.8390 
     23 O1         19.5292    4.3640   -3.4848 O.3       1 <0>        -0.1900 
     24 O2         15.4961    4.1296    1.2732 O.3       1 <0>        -0.2850 
     25 H1         13.2141    3.9088   -2.0043 H         1 <0>         0.0600 
     26 H2         13.7068    3.6144   -0.3378 H         1 <0>         0.0600 
     27 H3         12.2854    4.5720   -0.6847 H         1 <0>         0.0600 
     28 H4         13.6842    6.2846   -3.0800 H         1 <0>         0.0600 
     29 H5         12.4970    6.8017   -1.8825 H         1 <0>         0.0600 
     30 H6         14.0499    7.6185   -1.9922 H         1 <0>         0.0600 
     31 H7         14.2585    3.0396    2.5014 H         1 <0>         0.0300 
     32 H8         15.8867    3.2578    3.1289 H         1 <0>         0.0300 
     33 H9         14.7270    4.6044    3.1502 H         1 <0>         0.0300 
     34 H10        18.9769    8.0778    0.7390 H         1 <0>         0.1150 
     35 H11        18.7732    6.9113    2.9252 H         1 <0>         0.1150 
     36 H12        17.5712    7.3970   -1.1596 H         1 <0>         0.1150 
     37 H13        17.1816    5.0727    3.2056 H         1 <0>         0.1150 
     38 H14        18.6583    5.7831   -2.2970 H         1 <0>         0.1420 
     39 H15        15.9666    3.2626   -1.2200 H         1 <0>         0.0600 
     40 H16        15.3143    3.8528   -2.7348 H         1 <0>         0.0600 
     41 H17        14.0493    6.1235   -0.0692 H         1 <0>         0.0600 
     42 H18        15.9528    6.1582   -2.0773 H         1 <0>         0.0600 
     43 H19        15.3611    1.9189   -3.0615 H         1 <0>         0.3600 
     44 H20        15.5648    0.4796   -3.9608 H         1 <0>         0.3600 
     45 H21        19.4333   -0.6191   -5.9247 H         1 <0>         0.3600 
     46 H22        20.8064    0.4347   -6.0477 H         1 <0>         0.3600 
@<TRIPOS>BOND
     1    1   17 1    
     2    1   25 1    
     3    1   26 1    
     4    1   27 1    
     5    2   17 1    
     6    2   28 1    
     7    2   29 1    
     8    2   30 1    
     9    3   24 1    
    10    3   31 1    
    11    3   32 1    
    12    3   33 1    
    13    4    5 ar   
    14    4    6 ar   
    15    4   34 1    
    16    5    7 ar   
    17    5   35 1    
    18    6   10 ar   
    19    6   36 1    
    20    7   11 ar   
    21    7   37 1    
    22    8   12 2    
    23    8   23 1    
    24    8   38 1    
    25    9   12 1    
    26    9   18 1    
    27    9   39 1    
    28    9   40 1    
    29   10   11 ar   
    30   10   18 1    
    31   11   24 1    
    32   12   13 1    
    33   13   14 ar   
    34   13   15 ar   
    35   14   19 1    
    36   14   21 ar   
    37   15   22 ar   
    38   15   23 1    
    39   16   20 1    
    40   16   21 ar   
    41   16   22 ar   
    42   17   18 1    
    43   17   41 1    
    44   18   42 1    
    45   19   43 1    
    46   19   44 1    
    47   20   45 1    
    48   20   46 1    
@<TRIPOS>SUBSTRUCTURE
     1 <0>         1 GROUP             0       ****    0 ROOT    
@<TRIPOS>MOLECULE
D2B_187_3NXO
46   48    1
SMALL
USER_CHARGES


@<TRIPOS>ATOM
      1 C1         14.0398    4.7853   -3.1155 C.3       1 <0>        -0.1800 
      2 C2         14.0974    6.4325   -1.2255 C.3       1 <0>        -0.1800 
      3 C3         15.4852    4.0283    2.3147 C.3       1 <0>         0.1100 
      4 C4         18.3289    7.6198    0.1722 C.ar      1 <0>        -0.1150 
      5 C5         18.1772    7.1817    1.4969 C.ar      1 <0>        -0.1150 
      6 C6         17.6686    6.9381   -0.8647 C.ar      1 <0>        -0.1150 
      7 C7         17.3749    6.0616    1.7809 C.ar      1 <0>        -0.1150 
      8 C8         19.3660    4.3684   -2.1517 C.2       1 <0>        -0.0190 
      9 C9         16.8286    3.6641   -2.0269 C.3       1 <0>        -0.0050 
     10 C10        16.8845    5.7967   -0.6006 C.ar      1 <0>        -0.1150 
     11 C11        16.7132    5.3592    0.7413 C.ar      1 <0>         0.0850 
     12 C12        18.2637    3.6321   -2.5434 C.2       1 <0>        -0.1430 
     13 C13        18.8783    2.8111   -3.5455 C.ar      1 <0>        -0.3830 
     14 C14        18.3632    1.7602   -4.3470 C.ar      1 <0>         0.8640 
     15 C15        20.2336    3.1151   -3.7453 C.ar      1 <0>         0.6500 
     16 C16        20.4494    1.5932   -5.3390 C.ar      1 <0>         1.0420 
     17 C17        14.6701    5.0956   -1.7436 C.3       1 <0>        -0.0600 
     18 C18        16.2289    5.0741   -1.7849 C.3       1 <0>         0.0550 
     19 N1         17.0681    1.2604   -4.2811 N.pl3     1 <0>        -0.9200 
     20 N2         21.2024    0.9499   -6.2826 N.pl3     1 <0>        -0.9200 
     21 N3         19.1877    1.1706   -5.2400 N.ar      1 <0>        -0.8390 
     22 N4         21.0819    2.5392   -4.6449 N.ar      1 <0>        -0.8390 
     23 O1         20.5347    4.1126   -2.8453 O.3       1 <0>        -0.1900 
     24 O2         15.8939    4.2748    0.9769 O.3       1 <0>        -0.2850 
     25 H1         14.3886    5.4816   -3.8807 H         1 <0>         0.0600 
     26 H2         14.2651    3.7770   -3.4612 H         1 <0>         0.0600 
     27 H3         12.9533    4.8603   -3.0757 H         1 <0>         0.0600 
     28 H4         14.4477    7.2689   -1.8325 H         1 <0>         0.0600 
     29 H5         13.0088    6.4348   -1.2549 H         1 <0>         0.0600 
     30 H6         14.3832    6.6278   -0.1914 H         1 <0>         0.0600 
     31 H7         14.7134    3.2599    2.3170 H         1 <0>         0.0300 
     32 H8         16.3139    3.6673    2.9248 H         1 <0>         0.0300 
     33 H9         15.0534    4.9175    2.7756 H         1 <0>         0.0300 
     34 H10        18.9419    8.4813   -0.0498 H         1 <0>         0.1150 
     35 H11        18.6718    7.7075    2.3000 H         1 <0>         0.1150 
     36 H12        17.7772    7.2796   -1.8812 H         1 <0>         0.1150 
     37 H13        17.2810    5.7580    2.8118 H         1 <0>         0.1150 
     38 H14        19.5038    5.1265   -1.3965 H         1 <0>         0.1420 
     39 H15        16.7548    3.0679   -1.1202 H         1 <0>         0.0600 
     40 H16        16.2190    3.1474   -2.7578 H         1 <0>         0.0600 
     41 H17        14.3362    4.3266   -1.0463 H         1 <0>         0.0600 
     42 H18        16.4867    5.6544   -2.6717 H         1 <0>         0.0600 
     43 H19        16.3482    1.8067   -3.8349 H         1 <0>         0.3600 
     44 H20        16.7493    0.6391   -5.0095 H         1 <0>         0.3600 
     45 H21        20.8316    0.1076   -6.6920 H         1 <0>         0.3600 
     46 H22        22.2032    1.0719   -6.2666 H         1 <0>         0.3600 
@<TRIPOS>BOND
     1    1   17 1    
     2    1   25 1    
     3    1   26 1    
     4    1   27 1    
     5    2   17 1    
     6    2   28 1    
     7    2   29 1    
     8    2   30 1    
     9    3   24 1    
    10    3   31 1    
    11    3   32 1    
    12    3   33 1    
    13    4    5 ar   
    14    4    6 ar   
    15    4   34 1    
    16    5    7 ar   
    17    5   35 1    
    18    6   10 ar   
    19    6   36 1    
    20    7   11 ar   
    21    7   37 1    
    22    8   12 2    
    23    8   23 1    
    24    8   38 1    
    25    9   12 1    
    26    9   18 1    
    27    9   39 1    
    28    9   40 1    
    29   10   11 ar   
    30   10   18 1    
    31   11   24 1    
    32   12   13 1    
    33   13   14 ar   
    34   13   15 ar   
    35   14   19 1    
    36   14   21 ar   
    37   15   22 ar   
    38   15   23 1    
    39   16   20 1    
    40   16   21 ar   
    41   16   22 ar   
    42   17   18 1    
    43   17   41 1    
    44   18   42 1    
    45   19   43 1    
    46   19   44 1    
    47   20   45 1    
    48   20   46 1    
@<TRIPOS>SUBSTRUCTURE
     1 <0>         1 GROUP             0       ****    0 ROOT    
@<TRIPOS>MOLECULE
D2B_187_3NXO
46   48    1
SMALL
USER_CHARGES


@<TRIPOS>ATOM
      1 C1         19.3696    5.8825   -1.1090 C.3       1 <0>        -0.1800 
      2 C2         20.0885    3.4763   -0.8327 C.3       1 <0>        -0.1800 
      3 C3         14.6506    1.2886   -3.1043 C.3       1 <0>         0.1100 
      4 C4         14.6781    5.5545   -0.3594 C.ar      1 <0>        -0.1150 
      5 C5         13.6692    4.6612   -0.7478 C.ar      1 <0>        -0.1150 
      6 C6         16.0084    5.3131   -0.7444 C.ar      1 <0>        -0.1150 
      7 C7         13.9899    3.5309   -1.5174 C.ar      1 <0>        -0.1150 
      8 C8         20.4275    4.6774   -4.2838 C.2       1 <0>        -0.0190 
      9 C9         17.9914    4.3969   -3.4401 C.3       1 <0>        -0.0050 
     10 C10        16.3538    4.1805   -1.5220 C.ar      1 <0>        -0.1150 
     11 C11        15.3275    3.2758   -1.9158 C.ar      1 <0>         0.0850 
     12 C12        19.2696    3.9521   -4.1205 C.2       1 <0>        -0.1430 
     13 C13        19.6409    2.7560   -4.8136 C.ar      1 <0>        -0.3830 
     14 C14        18.9493    1.5440   -5.0506 C.ar      1 <0>         0.8640 
     15 C15        20.9273    2.8307   -5.3628 C.ar      1 <0>         0.6500 
     16 C16        20.7958    0.8083   -6.2466 C.ar      1 <0>         1.0420 
     17 C17        18.8811    4.4270   -0.9388 C.3       1 <0>        -0.0600 
     18 C18        17.8080    3.9411   -1.9720 C.3       1 <0>         0.0550 
     19 N1         17.6795    1.2544   -4.5791 N.pl3     1 <0>        -0.9200 
     20 N2         21.3771   -0.2220   -6.9348 N.pl3     1 <0>        -0.9200 
     21 N3         19.5658    0.5810   -5.7766 N.ar      1 <0>        -0.8390 
     22 N4         21.5609    1.8870   -6.1037 N.ar      1 <0>        -0.8390 
     23 O1         21.4257    4.0592   -5.0056 O.3       1 <0>        -0.1900 
     24 O2         15.6765    2.1825   -2.6831 O.3       1 <0>        -0.2850 
     25 H1         20.1223    5.9730   -1.8886 H         1 <0>         0.0600 
     26 H2         18.5692    6.5777   -1.3592 H         1 <0>         0.0600 
     27 H3         19.8337    6.2399   -0.1887 H         1 <0>         0.0600 
     28 H4         20.6607    3.4329   -1.7584 H         1 <0>         0.0600 
     29 H5         20.7711    3.7923   -0.0434 H         1 <0>         0.0600 
     30 H6         19.7775    2.4616   -0.5927 H         1 <0>         0.0600 
     31 H7         15.0863    0.4700   -3.6749 H         1 <0>         0.0300 
     32 H8         14.1317    0.8424   -2.2555 H         1 <0>         0.0300 
     33 H9         13.9279    1.7901   -3.7501 H         1 <0>         0.0300 
     34 H10        14.4365    6.4271    0.2310 H         1 <0>         0.1150 
     35 H11        12.6448    4.8418   -0.4629 H         1 <0>         0.1150 
     36 H12        16.7501    6.0242   -0.4231 H         1 <0>         0.1150 
     37 H13        13.1806    2.8736   -1.7948 H         1 <0>         0.1150 
     38 H14        20.7031    5.6618   -3.9578 H         1 <0>         0.1420 
     39 H15        17.1659    4.0297   -4.0496 H         1 <0>         0.0600 
     40 H16        17.9260    5.4838   -3.4875 H         1 <0>         0.0600 
     41 H17        18.4120    4.3650    0.0440 H         1 <0>         0.0600 
     42 H18        17.9113    2.8618   -1.9939 H         1 <0>         0.0600 
     43 H19        17.1208    1.9414   -4.0888 H         1 <0>         0.3600 
     44 H20        17.2201    0.3969   -4.8447 H         1 <0>         0.3600 
     45 H21        20.9605   -1.1345   -6.8489 H         1 <0>         0.3600 
     46 H22        22.3780   -0.1846   -7.0821 H         1 <0>         0.3600 
@<TRIPOS>BOND
     1    1   17 1    
     2    1   25 1    
     3    1   26 1    
     4    1   27 1    
     5    2   17 1    
     6    2   28 1    
     7    2   29 1    
     8    2   30 1    
     9    3   24 1    
    10    3   31 1    
    11    3   32 1    
    12    3   33 1    
    13    4    5 ar   
    14    4    6 ar   
    15    4   34 1    
    16    5    7 ar   
    17    5   35 1    
    18    6   10 ar   
    19    6   36 1    
    20    7   11 ar   
    21    7   37 1    
    22    8   12 2    
    23    8   23 1    
    24    8   38 1    
    25    9   12 1    
    26    9   18 1    
    27    9   39 1    
    28    9   40 1    
    29   10   11 ar   
    30   10   18 1    
    31   11   24 1    
    32   12   13 1    
    33   13   14 ar   
    34   13   15 ar   
    35   14   19 1    
    36   14   21 ar   
    37   15   22 ar   
    38   15   23 1    
    39   16   20 1    
    40   16   21 ar   
    41   16   22 ar   
    42   17   18 1    
    43   17   41 1    
    44   18   42 1    
    45   19   43 1    
    46   19   44 1    
    47   20   45 1    
    48   20   46 1    
@<TRIPOS>SUBSTRUCTURE
     1 <0>         1 GROUP             0       ****    0 ROOT    
@<TRIPOS>MOLECULE
D2B_187_3NXO
46   48    1
SMALL
USER_CHARGES


@<TRIPOS>ATOM
      1 C1         15.4585    5.4011   -4.2804 C.3       1 <0>        -0.1800 
      2 C2         15.6955    7.3168   -2.6470 C.3       1 <0>        -0.1800 
      3 C3         16.0144    1.3013   -3.8828 C.3       1 <0>         0.1100 
      4 C4         11.9415    2.8961   -1.3075 C.ar      1 <0>        -0.1150 
      5 C5         12.2380    1.7195   -2.0123 C.ar      1 <0>        -0.1150 
      6 C6         12.9007    3.9231   -1.2350 C.ar      1 <0>        -0.1150 
      7 C7         13.4877    1.5731   -2.6423 C.ar      1 <0>        -0.1150 
      8 C8         18.4352    6.2740   -0.9181 C.2       1 <0>        -0.0190 
      9 C9         16.5868    4.4913   -1.3534 C.3       1 <0>        -0.0050 
     10 C10        14.1623    3.7908   -1.8592 C.ar      1 <0>        -0.1150 
     11 C11        14.4626    2.6016   -2.5779 C.ar      1 <0>         0.0850 
     12 C12        17.3828    5.4734   -0.5271 C.2       1 <0>        -0.1430 
     13 C13        17.3172    5.8081    0.8565 C.ar      1 <0>        -0.3830 
     14 C14        16.4788    5.3413    1.8960 C.ar      1 <0>         0.8640 
     15 C15        18.2746    6.7587    1.2267 C.ar      1 <0>         0.6500 
     16 C16        17.6523    6.7151    3.3456 C.ar      1 <0>         1.0420 
     17 C17        15.0277    5.9575   -2.9123 C.3       1 <0>        -0.0600 
     18 C18        15.1508    4.9592   -1.7184 C.3       1 <0>         0.0550 
     19 N1         15.4616    4.4081    1.7380 N.pl3     1 <0>        -0.9200 
     20 N2         17.7772    7.1779    4.6274 N.pl3     1 <0>        -0.9200 
     21 N3         16.6805    5.8224    3.1440 N.ar      1 <0>        -0.8390 
     22 N4         18.4900    7.2605    2.4711 N.ar      1 <0>        -0.8390 
     23 O1         18.9772    7.0599    0.0826 O.3       1 <0>        -0.1900 
     24 O2         15.6921    2.4992   -3.1937 O.3       1 <0>        -0.2850 
     25 H1         16.4902    5.0517   -4.2725 H         1 <0>         0.0600 
     26 H2         14.8255    4.5693   -4.5895 H         1 <0>         0.0600 
     27 H3         15.3781    6.1641   -5.0553 H         1 <0>         0.0600 
     28 H4         16.7738    7.2648   -2.7875 H         1 <0>         0.0600 
     29 H5         15.3214    8.0740   -3.3345 H         1 <0>         0.0600 
     30 H6         15.5046    7.6619   -1.6306 H         1 <0>         0.0600 
     31 H7         16.9963    1.4033   -4.3442 H         1 <0>         0.0300 
     32 H8         16.0576    0.4583   -3.1934 H         1 <0>         0.0300 
     33 H9         15.3020    1.0864   -4.6814 H         1 <0>         0.0300 
     34 H10        10.9835    3.0113   -0.8187 H         1 <0>         0.1150 
     35 H11        11.5091    0.9232   -2.0801 H         1 <0>         0.1150 
     36 H12        12.6565    4.8223   -0.6903 H         1 <0>         0.1150 
     37 H13        13.6667    0.6510   -3.1763 H         1 <0>         0.1150 
     38 H14        18.9233    6.4138   -1.8714 H         1 <0>         0.1420 
     39 H15        16.5324    3.5798   -0.7579 H         1 <0>         0.0600 
     40 H16        17.1629    4.2359   -2.2409 H         1 <0>         0.0600 
     41 H17        13.9645    6.1815   -3.0008 H         1 <0>         0.0600 
     42 H18        14.7980    5.5025   -0.8413 H         1 <0>         0.0600 
     43 H19        15.3471    3.9167    0.8644 H         1 <0>         0.3600 
     44 H20        15.0136    4.0151    2.5509 H         1 <0>         0.3600 
     45 H21        16.9060    7.2728    5.1217 H         1 <0>         0.3600 
     46 H22        18.4137    7.9557    4.7335 H         1 <0>         0.3600 
@<TRIPOS>BOND
     1    1   17 1    
     2    1   25 1    
     3    1   26 1    
     4    1   27 1    
     5    2   17 1    
     6    2   28 1    
     7    2   29 1    
     8    2   30 1    
     9    3   24 1    
    10    3   31 1    
    11    3   32 1    
    12    3   33 1    
    13    4    5 ar   
    14    4    6 ar   
    15    4   34 1    
    16    5    7 ar   
    17    5   35 1    
    18    6   10 ar   
    19    6   36 1    
    20    7   11 ar   
    21    7   37 1    
    22    8   12 2    
    23    8   23 1    
    24    8   38 1    
    25    9   12 1    
    26    9   18 1    
    27    9   39 1    
    28    9   40 1    
    29   10   11 ar   
    30   10   18 1    
    31   11   24 1    
    32   12   13 1    
    33   13   14 ar   
    34   13   15 ar   
    35   14   19 1    
    36   14   21 ar   
    37   15   22 ar   
    38   15   23 1    
    39   16   20 1    
    40   16   21 ar   
    41   16   22 ar   
    42   17   18 1    
    43   17   41 1    
    44   18   42 1    
    45   19   43 1    
    46   19   44 1    
    47   20   45 1    
    48   20   46 1    
@<TRIPOS>SUBSTRUCTURE
     1 <0>         1 GROUP             0       ****    0 ROOT    
