@<TRIPOS>MOLECULE
HYZ_1_2RGP
60   64    1
SMALL
USER_CHARGES


@<TRIPOS>ATOM
      1 C1         14.4090   32.7248   86.7916 C.ar      1 <0>        -0.1150 
      2 C2         13.7894   33.1493   87.9821 C.ar      1 <0>        -0.1150 
      3 C3         15.8134   32.6922   86.7013 C.ar      1 <0>        -0.1150 
      4 C4         12.2777   30.7236   93.2094 C.ar      1 <0>        -0.0293 
      5 C5         12.6443   31.6020   92.1731 C.ar      1 <0>        -0.3879 
      6 C6         15.9739   33.5257   88.9874 C.ar      1 <0>        -0.1150 
      7 C7         14.2096   31.4388   94.5152 C.ar      1 <0>        -0.2193 
      8 C8         15.6439   33.2831   93.2829 C.ar      1 <0>         0.0667 
      9 C9          9.6954   28.0021   95.0506 C.ar      1 <0>         0.8740 
     10 C10        18.3928   28.7991   97.6562 C.3       1 <0>        -0.1200 
     11 C11        17.4066   27.9058   98.4214 C.3       1 <0>        -0.1200 
     12 C12        17.6375   29.7385   96.7013 C.3       1 <0>        -0.1200 
     13 C13        16.4637   27.1762   97.4566 C.3       1 <0>         0.0025 
     14 C14        16.6685   28.9520   95.8032 C.3       1 <0>         0.0025 
     15 C15        13.5247   27.2059   96.6121 C.3       1 <0>         0.1175 
     16 C16        13.8662   34.0317   90.3557 C.3       1 <0>         0.1175 
     17 C17        14.5642   33.5447   89.0920 C.ar      1 <0>        -0.1150 
     18 C18        13.0451   30.6515   94.3999 C.ar      1 <0>         0.1509 
     19 C19        16.5952   33.0962   87.7990 C.ar      1 <0>         0.2200 
     20 C20        13.7863   32.4047   92.3281 C.ar      1 <0>         0.2601 
     21 C21        14.6013   32.3257   93.4885 C.ar      1 <0>         0.0183 
     22 C22        12.1904   27.4808   95.9280 C.ar      1 <0>        -0.6070 
     23 C23        11.2269   26.4698   95.7400 C.ar      1 <0>         0.8640 
     24 C24        11.8024   28.7702   95.5008 C.ar      1 <0>         0.8640 
     25 N1         11.5403   25.1257   95.8920 N.pl3     1 <0>        -0.9200 
     26 N2         15.4826   33.9338   92.1572 N.2       1 <0>        -0.4212 
     27 N3          9.9743   26.7329   95.3327 N.ar      1 <0>        -0.8390 
     28 N4         10.5447   29.0240   95.0868 N.ar      1 <0>        -0.8390 
     29 N5         14.7126   27.5242   95.8169 N.3       1 <0>        -0.3325 
     30 N6         12.7227   29.8223   95.4859 N.pl3     1 <0>        -0.7800 
     31 N7         14.3624   33.4211   91.5787 N.pl3     1 <0>         0.0186 
     32 N8         15.7444   28.1184   96.5856 N.3       1 <0>        -0.2450 
     33 F1         17.9457   33.0735   87.7114 F         1 <0>        -0.2200 
     34 H1         13.8040   32.4272   85.9472 H         1 <0>         0.1150 
     35 H2         12.7120   33.1846   88.0315 H         1 <0>         0.1150 
     36 H3         16.2920   32.3628   85.7909 H         1 <0>         0.1150 
     37 H4         11.3903   30.1292   93.0689 H         1 <0>         0.1289 
     38 H5         12.0371   31.6773   91.2850 H         1 <0>         0.1888 
     39 H6         16.5937   33.8456   89.8112 H         1 <0>         0.1150 
     40 H7         14.7944   31.4058   95.4234 H         1 <0>         0.1691 
     41 H8         16.4670   33.5417   93.9332 H         1 <0>         0.1338 
     42 H9          8.6892   28.2163   94.7238 H         1 <0>        -0.0320 
     43 H10        18.9986   29.3778   98.3537 H         1 <0>         0.0600 
     44 H11        19.0833   28.1732   97.0921 H         1 <0>         0.0600 
     45 H12        17.9451   27.1901   99.0432 H         1 <0>         0.0600 
     46 H13        16.8062   28.5186   99.0918 H         1 <0>         0.0600 
     47 H14        17.0756   30.4734   97.2789 H         1 <0>         0.0600 
     48 H15        18.3450   30.2970   96.0883 H         1 <0>         0.0600 
     49 H16        17.0196   26.4756   96.8338 H         1 <0>         0.0600 
     50 H17        15.7483   26.5927   98.0354 H         1 <0>         0.0600 
     51 H18        17.2324   28.3201   95.1183 H         1 <0>         0.0600 
     52 H19        16.0971   29.6405   95.1849 H         1 <0>         0.0600 
     53 H20        13.5984   26.1751   96.9571 H         1 <0>         0.0600 
     54 H21        13.5281   27.8191   97.5153 H         1 <0>         0.0600 
     55 H22        12.7953   33.8376   90.2889 H         1 <0>         0.0600 
     56 H23        13.9668   35.1135   90.4412 H         1 <0>         0.0600 
     57 H24        12.5077   24.8508   95.9516 H         1 <0>         0.3600 
     58 H25        10.9092   24.4356   95.5042 H         1 <0>         0.3600 
     59 H26        15.0887   26.6716   95.4089 H         1 <0>         0.2100 
     60 H27        13.5227   29.6425   96.0789 H         1 <0>         0.3800 
@<TRIPOS>BOND
     1    1    2 ar   
     2    1    3 ar   
     3    1   34 1    
     4    2   17 ar   
     5    2   35 1    
     6    3   19 ar   
     7    3   36 1    
     8    4    5 ar   
     9    4   18 ar   
    10    4   37 1    
    11    5   20 ar   
    12    5   38 1    
    13    6   17 ar   
    14    6   19 ar   
    15    6   39 1    
    16    7   18 ar   
    17    7   21 ar   
    18    7   40 1    
    19    8   21 ar   
    20    8   26 ar   
    21    8   41 1    
    22    9   27 ar   
    23    9   28 ar   
    24    9   42 1    
    25   10   11 1    
    26   10   12 1    
    27   10   43 1    
    28   10   44 1    
    29   11   13 1    
    30   11   45 1    
    31   11   46 1    
    32   12   14 1    
    33   12   47 1    
    34   12   48 1    
    35   13   32 1    
    36   13   49 1    
    37   13   50 1    
    38   14   32 1    
    39   14   51 1    
    40   14   52 1    
    41   15   22 1    
    42   15   29 1    
    43   15   53 1    
    44   15   54 1    
    45   16   17 1    
    46   16   31 1    
    47   16   55 1    
    48   16   56 1    
    49   18   30 1    
    50   19   33 1    
    51   20   21 ar   
    52   20   31 ar   
    53   22   23 ar   
    54   22   24 ar   
    55   23   25 1    
    56   23   27 ar   
    57   24   28 ar   
    58   24   30 1    
    59   25   57 1    
    60   25   58 1    
    61   26   31 ar   
    62   29   32 1    
    63   29   59 1    
    64   30   60 1    
@<TRIPOS>SUBSTRUCTURE
     1 <0>         1 GROUP             0       ****    0 ROOT    
@<TRIPOS>MOLECULE
HYZ_1_2RGP
60   64    1
SMALL
USER_CHARGES


@<TRIPOS>ATOM
      1 C1         15.3811   32.3251   86.3618 C.ar      1 <0>        -0.1150 
      2 C2         14.5729   32.8131   87.4069 C.ar      1 <0>        -0.1150 
      3 C3         16.7818   32.4300   86.4440 C.ar      1 <0>        -0.1150 
      4 C4         12.8853   30.7565   92.7364 C.ar      1 <0>        -0.0293 
      5 C5         13.1962   31.6047   91.6607 C.ar      1 <0>        -0.3879 
      6 C6         16.5656   33.5195   88.6161 C.ar      1 <0>        -0.1150 
      7 C7         14.5913   31.8457   94.1012 C.ar      1 <0>        -0.2193 
      8 C8         15.8041   33.8205   92.8112 C.ar      1 <0>         0.0667 
      9 C9         10.1506   28.3951   94.7588 C.ar      1 <0>         0.8740 
     10 C10        18.7081   27.5850   97.6546 C.3       1 <0>        -0.1200 
     11 C11        17.7910   26.6947   98.4977 C.3       1 <0>        -0.1200 
     12 C12        18.0660   28.9667   97.4585 C.3       1 <0>        -0.1200 
     13 C13        16.3879   26.6106   97.8809 C.3       1 <0>         0.0025 
     14 C14        16.6428   28.8433   96.8907 C.3       1 <0>         0.0025 
     15 C15        14.0620   27.4024   96.0053 C.3       1 <0>         0.1175 
     16 C16        14.2575   33.9263   89.6589 C.3       1 <0>         0.1175 
     17 C17        15.1587   33.3984   88.5499 C.ar      1 <0>        -0.1150 
     18 C18        13.5654   30.8844   93.9727 C.ar      1 <0>         0.1509 
     19 C19        17.3728   33.0340   87.5698 C.ar      1 <0>         0.2200 
     20 C20        14.1880   32.5821   91.8241 C.ar      1 <0>         0.2601 
     21 C21        14.9100   32.7259   93.0397 C.ar      1 <0>         0.0183 
     22 C22        12.6438   27.7635   95.5781 C.ar      1 <0>        -0.6070 
     23 C23        11.5970   26.8165   95.5274 C.ar      1 <0>         0.8640 
     24 C24        12.3046   29.0641   95.1455 C.ar      1 <0>         0.8640 
     25 N1         11.7879   25.4907   95.8890 N.pl3     1 <0>        -0.9200 
     26 N2         15.6518   34.3249   91.6100 N.2       1 <0>        -0.4212 
     27 N3         10.3599   27.1271   95.1026 N.ar      1 <0>        -0.8390 
     28 N4         11.0497   29.3752   94.7622 N.ar      1 <0>        -0.8390 
     29 N5         14.4037   27.9256   97.3355 N.3       1 <0>        -0.3325 
     30 N6         13.2737   30.0726   95.0795 N.pl3     1 <0>        -0.7800 
     31 N7         14.6892   33.5785   91.0038 N.pl3     1 <0>         0.0186 
     32 N8         15.7882   27.9378   97.6850 N.3       1 <0>        -0.2450 
     33 F1         18.7198   33.1496   87.6452 F         1 <0>        -0.2200 
     34 H1         14.9236   31.8692   85.4961 H         1 <0>         0.1150 
     35 H2         13.4986   32.7358   87.3240 H         1 <0>         0.1150 
     36 H3         17.4030   32.0549   85.6452 H         1 <0>         0.1150 
     37 H4         12.1217   30.0088   92.5868 H         1 <0>         0.1289 
     38 H5         12.6707   31.5136   90.7241 H         1 <0>         0.1888 
     39 H6         17.0446   33.9871   89.4629 H         1 <0>         0.1150 
     40 H7         15.1202   31.9466   95.0388 H         1 <0>         0.1691 
     41 H8         16.5245   34.2585   93.4875 H         1 <0>         0.1338 
     42 H9          9.1535   28.6524   94.4357 H         1 <0>        -0.0320 
     43 H10        19.6857   27.6871   98.1287 H         1 <0>         0.0600 
     44 H11        18.8804   27.1101   96.6922 H         1 <0>         0.0600 
     45 H12        18.2187   25.6977   98.6082 H         1 <0>         0.0600 
     46 H13        17.7181   27.1244   99.4935 H         1 <0>         0.0600 
     47 H14        18.0330   29.4892   98.4145 H         1 <0>         0.0600 
     48 H15        18.6817   29.5718   96.7931 H         1 <0>         0.0600 
     49 H16        16.4420   26.1006   96.9190 H         1 <0>         0.0600 
     50 H17        15.7388   26.0197   98.5284 H         1 <0>         0.0600 
     51 H18        16.7000   28.4747   95.8657 H         1 <0>         0.0600 
     52 H19        16.1835   29.8312   96.8525 H         1 <0>         0.0600 
     53 H20        14.7411   27.8171   95.2611 H         1 <0>         0.0600 
     54 H21        14.2199   26.3262   95.9915 H         1 <0>         0.0600 
     55 H22        13.2443   33.5488   89.5190 H         1 <0>         0.0600 
     56 H23        14.1828   35.0056   89.5822 H         1 <0>         0.0600 
     57 H24        12.6310   25.1989   96.3572 H         1 <0>         0.3600 
     58 H25        11.0126   24.8450   95.8757 H         1 <0>         0.3600 
     59 H26        14.0047   28.8503   97.4944 H         1 <0>         0.2100 
     60 H27        14.0382   29.9658   95.7291 H         1 <0>         0.3800 
@<TRIPOS>BOND
     1    1    2 ar   
     2    1    3 ar   
     3    1   34 1    
     4    2   17 ar   
     5    2   35 1    
     6    3   19 ar   
     7    3   36 1    
     8    4    5 ar   
     9    4   18 ar   
    10    4   37 1    
    11    5   20 ar   
    12    5   38 1    
    13    6   17 ar   
    14    6   19 ar   
    15    6   39 1    
    16    7   18 ar   
    17    7   21 ar   
    18    7   40 1    
    19    8   21 ar   
    20    8   26 ar   
    21    8   41 1    
    22    9   27 ar   
    23    9   28 ar   
    24    9   42 1    
    25   10   11 1    
    26   10   12 1    
    27   10   43 1    
    28   10   44 1    
    29   11   13 1    
    30   11   45 1    
    31   11   46 1    
    32   12   14 1    
    33   12   47 1    
    34   12   48 1    
    35   13   32 1    
    36   13   49 1    
    37   13   50 1    
    38   14   32 1    
    39   14   51 1    
    40   14   52 1    
    41   15   22 1    
    42   15   29 1    
    43   15   53 1    
    44   15   54 1    
    45   16   17 1    
    46   16   31 1    
    47   16   55 1    
    48   16   56 1    
    49   18   30 1    
    50   19   33 1    
    51   20   21 ar   
    52   20   31 ar   
    53   22   23 ar   
    54   22   24 ar   
    55   23   25 1    
    56   23   27 ar   
    57   24   28 ar   
    58   24   30 1    
    59   25   57 1    
    60   25   58 1    
    61   26   31 ar   
    62   29   32 1    
    63   29   59 1    
    64   30   60 1    
@<TRIPOS>SUBSTRUCTURE
     1 <0>         1 GROUP             0       ****    0 ROOT    
@<TRIPOS>MOLECULE
HYZ_1_2RGP
60   64    1
SMALL
USER_CHARGES


@<TRIPOS>ATOM
      1 C1         15.4113   32.2119   86.2923 C.ar      1 <0>        -0.1150 
      2 C2         14.5912   32.7256   87.3156 C.ar      1 <0>        -0.1150 
      3 C3         16.8107   32.3266   86.3853 C.ar      1 <0>        -0.1150 
      4 C4         12.8319   30.8056   92.7106 C.ar      1 <0>        -0.0293 
      5 C5         13.1371   31.6362   91.6171 C.ar      1 <0>        -0.3879 
      6 C6         16.5672   33.4619   88.5306 C.ar      1 <0>        -0.1150 
      7 C7         14.5891   31.8802   94.0204 C.ar      1 <0>        -0.2193 
      8 C8         15.7968   33.8297   92.6948 C.ar      1 <0>         0.0667 
      9 C9         10.1183   28.5145   95.0060 C.ar      1 <0>         0.8740 
     10 C10        18.7636   28.7547   97.9961 C.3       1 <0>        -0.1200 
     11 C11        18.0738   29.5183   96.8563 C.3       1 <0>        -0.1200 
     12 C12        18.2433   27.3099   98.0588 C.3       1 <0>        -0.1200 
     13 C13        16.5439   29.4045   96.9593 C.3       1 <0>         0.0025 
     14 C14        16.7075   27.2857   98.1450 C.3       1 <0>         0.0025 
     15 C15        14.1122   27.4072   95.7837 C.3       1 <0>         0.1175 
     16 C16        14.2482   33.8914   89.5391 C.3       1 <0>         0.1175 
     17 C17        15.1614   33.3370   88.4525 C.ar      1 <0>        -0.1150 
     18 C18        13.5502   30.9290   93.9243 C.ar      1 <0>         0.1509 
     19 C19        17.3877   32.9535   87.5048 C.ar      1 <0>         0.2200 
     20 C20        14.1511   32.5984   91.7457 C.ar      1 <0>         0.2601 
     21 C21        14.8956   32.7463   92.9455 C.ar      1 <0>         0.0183 
     22 C22        12.6641   27.8086   95.5391 C.ar      1 <0>        -0.6070 
     23 C23        11.5950   26.8852   95.5936 C.ar      1 <0>         0.8640 
     24 C24        12.3156   29.1245   95.1610 C.ar      1 <0>         0.8640 
     25 N1         11.7880   25.5415   95.8919 N.pl3     1 <0>        -0.9200 
     26 N2         15.6340   34.3233   91.4905 N.2       1 <0>        -0.4212 
     27 N3         10.3271   27.2408   95.3296 N.ar      1 <0>        -0.8390 
     28 N4         11.0392   29.4707   94.9057 N.ar      1 <0>        -0.8390 
     29 N5         14.6601   27.9186   97.0428 N.3       1 <0>        -0.3325 
     30 N6         13.2941   30.1187   95.0396 N.pl3     1 <0>        -0.7800 
     31 N7         14.6636   33.5716   90.8994 N.pl3     1 <0>         0.0186 
     32 N8         16.0747   28.0144   97.0359 N.3       1 <0>        -0.2450 
     33 F1         18.7332   33.0692   87.5952 F         1 <0>        -0.2200 
     34 H1         14.9663   31.7340   85.4316 H         1 <0>         0.1150 
     35 H2         13.5182   32.6432   87.2211 H         1 <0>         0.1150 
     36 H3         17.4437   31.9362   85.6027 H         1 <0>         0.1150 
     37 H4         12.0501   30.0698   92.5974 H         1 <0>         0.1289 
     38 H5         12.5900   31.5444   90.6934 H         1 <0>         0.1888 
     39 H6         17.0342   33.9489   89.3720 H         1 <0>         0.1150 
     40 H7         15.1442   31.9843   94.9415 H         1 <0>         0.1691 
     41 H8         16.5300   34.2690   93.3550 H         1 <0>         0.1338 
     42 H9          9.0966   28.7970   94.8017 H         1 <0>        -0.0320 
     43 H10        19.8441   28.7590   97.8517 H         1 <0>         0.0600 
     44 H11        18.5702   29.2563   98.9451 H         1 <0>         0.0600 
     45 H12        18.3718   30.5673   96.8730 H         1 <0>         0.0600 
     46 H13        18.3971   29.1251   95.8929 H         1 <0>         0.0600 
     47 H14        18.5694   26.7649   97.1720 H         1 <0>         0.0600 
     48 H15        18.6745   26.7942   98.9186 H         1 <0>         0.0600 
     49 H16        16.1903   29.9251   97.8467 H         1 <0>         0.0600 
     50 H17        16.0875   29.8925   96.0980 H         1 <0>         0.0600 
     51 H18        16.3901   27.7296   99.0906 H         1 <0>         0.0600 
     52 H19        16.3544   26.2528   98.1448 H         1 <0>         0.0600 
     53 H20        14.7011   27.7991   94.9513 H         1 <0>         0.0600 
     54 H21        14.2360   26.3258   95.7632 H         1 <0>         0.0600 
     55 H22        13.2347   33.5159   89.3968 H         1 <0>         0.0600 
     56 H23        14.1883   34.9685   89.4266 H         1 <0>         0.0600 
     57 H24        12.6896   25.1886   96.1707 H         1 <0>         0.3600 
     58 H25        11.0082   24.8995   95.8894 H         1 <0>         0.3600 
     59 H26        14.2478   28.8137   97.3038 H         1 <0>         0.2100 
     60 H27        14.0930   29.9878   95.6428 H         1 <0>         0.3800 
@<TRIPOS>BOND
     1    1    2 ar   
     2    1    3 ar   
     3    1   34 1    
     4    2   17 ar   
     5    2   35 1    
     6    3   19 ar   
     7    3   36 1    
     8    4    5 ar   
     9    4   18 ar   
    10    4   37 1    
    11    5   20 ar   
    12    5   38 1    
    13    6   17 ar   
    14    6   19 ar   
    15    6   39 1    
    16    7   18 ar   
    17    7   21 ar   
    18    7   40 1    
    19    8   21 ar   
    20    8   26 ar   
    21    8   41 1    
    22    9   27 ar   
    23    9   28 ar   
    24    9   42 1    
    25   10   11 1    
    26   10   12 1    
    27   10   43 1    
    28   10   44 1    
    29   11   13 1    
    30   11   45 1    
    31   11   46 1    
    32   12   14 1    
    33   12   47 1    
    34   12   48 1    
    35   13   32 1    
    36   13   49 1    
    37   13   50 1    
    38   14   32 1    
    39   14   51 1    
    40   14   52 1    
    41   15   22 1    
    42   15   29 1    
    43   15   53 1    
    44   15   54 1    
    45   16   17 1    
    46   16   31 1    
    47   16   55 1    
    48   16   56 1    
    49   18   30 1    
    50   19   33 1    
    51   20   21 ar   
    52   20   31 ar   
    53   22   23 ar   
    54   22   24 ar   
    55   23   25 1    
    56   23   27 ar   
    57   24   28 ar   
    58   24   30 1    
    59   25   57 1    
    60   25   58 1    
    61   26   31 ar   
    62   29   32 1    
    63   29   59 1    
    64   30   60 1    
@<TRIPOS>SUBSTRUCTURE
     1 <0>         1 GROUP             0       ****    0 ROOT    
@<TRIPOS>MOLECULE
HYZ_1_2RGP
60   64    1
SMALL
USER_CHARGES


@<TRIPOS>ATOM
      1 C1         19.7830   35.5454   91.0822 C.ar      1 <0>        -0.1150 
      2 C2         18.5890   35.7233   91.8061 C.ar      1 <0>        -0.1150 
      3 C3         19.7844   34.7624   89.9133 C.ar      1 <0>        -0.1150 
      4 C4         15.5082   31.6298   94.7704 C.ar      1 <0>        -0.0293 
      5 C5         15.7890   32.8565   94.1537 C.ar      1 <0>        -0.3879 
      6 C6         17.3993   34.3323   90.2069 C.ar      1 <0>        -0.1150 
      7 C7         13.8719   31.1152   93.0264 C.ar      1 <0>        -0.2193 
      8 C8         13.6299   33.0819   91.2666 C.ar      1 <0>         0.0667 
      9 C9         17.0017   28.3150   96.8085 C.ar      1 <0>         0.8740 
     10 C10         8.0769   28.2942   94.4612 C.3       1 <0>        -0.1200 
     11 C11         8.5896   27.1329   95.3259 C.3       1 <0>        -0.1200 
     12 C12         9.2365   28.9170   93.6664 C.3       1 <0>        -0.1200 
     13 C13         9.7483   27.5865   96.2160 C.3       1 <0>         0.0025 
     14 C14        10.4075   29.2921   94.5909 C.3       1 <0>         0.0025 
     15 C15        12.9569   27.3307   96.1257 C.3       1 <0>         0.1175 
     16 C16        16.1179   35.3805   92.1916 C.3       1 <0>         0.1175 
     17 C17        17.3876   35.1255   91.3792 C.ar      1 <0>        -0.1150 
     18 C18        14.5891   30.7294   94.1809 C.ar      1 <0>         0.1509 
     19 C19        18.5920   34.1545   89.4777 C.ar      1 <0>         0.2200 
     20 C20        15.1076   33.1949   92.9751 C.ar      1 <0>         0.2601 
     21 C21        14.1163   32.3570   92.4006 C.ar      1 <0>         0.0183 
     22 C22        14.3936   27.7485   96.4180 C.ar      1 <0>        -0.6070 
     23 C23        15.1568   27.1431   97.4337 C.ar      1 <0>         0.8640 
     24 C24        15.0641   28.7304   95.6606 C.ar      1 <0>         0.8640 
     25 N1         14.5891   26.2163   98.2920 N.pl3     1 <0>        -0.9200 
     26 N2         14.2532   34.2263   91.1197 N.2       1 <0>        -0.4212 
     27 N3         16.4560   27.4218   97.6311 N.ar      1 <0>        -0.8390 
     28 N4         16.3811   28.9720   95.8314 N.ar      1 <0>        -0.8390 
     29 N5         11.9945   28.4280   96.1923 N.3       1 <0>        -0.3325 
     30 N6         14.3564   29.4498   94.6920 N.pl3     1 <0>        -0.7800 
     31 N7         15.1763   34.2780   92.1212 N.pl3     1 <0>         0.0186 
     32 N8         10.8423   28.1610   95.4255 N.3       1 <0>        -0.2450 
     33 F1         18.5893   33.3980   88.3543 F         1 <0>        -0.2200 
     34 H1         20.6914   36.0201   91.4272 H         1 <0>         0.1150 
     35 H2         18.5932   36.3373   92.6919 H         1 <0>         0.1150 
     36 H3         20.6979   34.6323   89.3521 H         1 <0>         0.1150 
     37 H4         16.0314   31.3916   95.6830 H         1 <0>         0.1289 
     38 H5         16.5243   33.5244   94.5780 H         1 <0>         0.1888 
     39 H6         16.4988   33.8635   89.8411 H         1 <0>         0.1150 
     40 H7         13.1526   30.4410   92.5870 H         1 <0>         0.1691 
     41 H8         12.8604   32.8008   90.5637 H         1 <0>         0.1338 
     42 H9         18.0508   28.5293   96.9502 H         1 <0>        -0.0320 
     43 H10         7.3015   27.9420   93.7801 H         1 <0>         0.0600 
     44 H11         7.6169   29.0515   95.0976 H         1 <0>         0.0600 
     45 H12         7.7891   26.7264   95.9380 H         1 <0>         0.0600 
     46 H13         8.9356   26.3198   94.6922 H         1 <0>         0.0600 
     47 H14         9.5838   28.2078   92.9136 H         1 <0>         0.0600 
     48 H15         8.8923   29.7985   93.1246 H         1 <0>         0.0600 
     49 H16         9.3991   28.3251   96.9371 H         1 <0>         0.0600 
     50 H17        10.1247   26.7359   96.7844 H         1 <0>         0.0600 
     51 H18        10.1193   30.1232   95.2351 H         1 <0>         0.0600 
     52 H19        11.2500   29.6376   93.9909 H         1 <0>         0.0600 
     53 H20        12.6145   26.5271   96.7771 H         1 <0>         0.0600 
     54 H21        12.9559   26.9213   95.1141 H         1 <0>         0.0600 
     55 H22        15.6309   36.3066   91.8921 H         1 <0>         0.0600 
     56 H23        16.3902   35.5275   93.2381 H         1 <0>         0.0600 
     57 H24        13.5871   26.1305   98.3555 H         1 <0>         0.3600 
     58 H25        15.1231   25.8209   99.0573 H         1 <0>         0.3600 
     59 H26        11.6991   28.5692   97.1568 H         1 <0>         0.2100 
     60 H27        13.4516   29.0576   94.4755 H         1 <0>         0.3800 
@<TRIPOS>BOND
     1    1    2 ar   
     2    1    3 ar   
     3    1   34 1    
     4    2   17 ar   
     5    2   35 1    
     6    3   19 ar   
     7    3   36 1    
     8    4    5 ar   
     9    4   18 ar   
    10    4   37 1    
    11    5   20 ar   
    12    5   38 1    
    13    6   17 ar   
    14    6   19 ar   
    15    6   39 1    
    16    7   18 ar   
    17    7   21 ar   
    18    7   40 1    
    19    8   21 ar   
    20    8   26 ar   
    21    8   41 1    
    22    9   27 ar   
    23    9   28 ar   
    24    9   42 1    
    25   10   11 1    
    26   10   12 1    
    27   10   43 1    
    28   10   44 1    
    29   11   13 1    
    30   11   45 1    
    31   11   46 1    
    32   12   14 1    
    33   12   47 1    
    34   12   48 1    
    35   13   32 1    
    36   13   49 1    
    37   13   50 1    
    38   14   32 1    
    39   14   51 1    
    40   14   52 1    
    41   15   22 1    
    42   15   29 1    
    43   15   53 1    
    44   15   54 1    
    45   16   17 1    
    46   16   31 1    
    47   16   55 1    
    48   16   56 1    
    49   18   30 1    
    50   19   33 1    
    51   20   21 ar   
    52   20   31 ar   
    53   22   23 ar   
    54   22   24 ar   
    55   23   25 1    
    56   23   27 ar   
    57   24   28 ar   
    58   24   30 1    
    59   25   57 1    
    60   25   58 1    
    61   26   31 ar   
    62   29   32 1    
    63   29   59 1    
    64   30   60 1    
@<TRIPOS>SUBSTRUCTURE
     1 <0>         1 GROUP             0       ****    0 ROOT    
@<TRIPOS>MOLECULE
HYZ_1_2RGP
60   64    1
SMALL
USER_CHARGES


@<TRIPOS>ATOM
      1 C1         20.1919   35.2811   90.9086 C.ar      1 <0>        -0.1150 
      2 C2         19.0588   35.4792   91.7196 C.ar      1 <0>        -0.1150 
      3 C3         20.0516   34.6969   89.6364 C.ar      1 <0>        -0.1150 
      4 C4         15.7190   31.7834   94.8956 C.ar      1 <0>        -0.0293 
      5 C5         16.0904   32.9614   94.2303 C.ar      1 <0>        -0.3879 
      6 C6         17.6454   34.5109   89.9967 C.ar      1 <0>        -0.1150 
      7 C7         13.9973   31.3593   93.2067 C.ar      1 <0>        -0.2193 
      8 C8         13.9041   33.2498   91.3642 C.ar      1 <0>         0.0667 
      9 C9         17.0617   28.2206   96.6920 C.ar      1 <0>         0.8740 
     10 C10         8.2507   28.4417   94.9939 C.3       1 <0>        -0.1200 
     11 C11         8.6342   27.0451   95.5036 C.3       1 <0>        -0.1200 
     12 C12         9.2736   28.9277   93.9534 C.3       1 <0>        -0.1200 
     13 C13        10.0713   27.0197   96.0235 C.3       1 <0>         0.0025 
     14 C14        10.7137   28.8219   94.4884 C.3       1 <0>         0.0025 
     15 C15        12.8641   27.8801   96.5636 C.3       1 <0>         0.1175 
     16 C16        16.5665   35.3957   92.1649 C.3       1 <0>         0.1175 
     17 C17        17.7741   35.1084   91.2726 C.ar      1 <0>        -0.1150 
     18 C18        14.7020   30.9580   94.3600 C.ar      1 <0>         0.1509 
     19 C19        18.7772   34.3075   89.1833 C.ar      1 <0>         0.2200 
     20 C20        15.4175   33.3134   93.0488 C.ar      1 <0>         0.2601 
     21 C21        14.3442   32.5439   92.5255 C.ar      1 <0>         0.0183 
     22 C22        14.3793   27.9927   96.6026 C.ar      1 <0>        -0.6070 
     23 C23        15.1731   27.2102   97.4586 C.ar      1 <0>         0.8640 
     24 C24        15.0728   28.9196   95.8022 C.ar      1 <0>         0.8640 
     25 N1         14.5934   26.2698   98.2920 N.pl3     1 <0>        -0.9200 
     26 N2         14.6228   34.3256   91.1576 N.2       1 <0>        -0.4212 
     27 N3         16.5116   27.3228   97.5089 N.ar      1 <0>        -0.8390 
     28 N4         16.4198   29.0064   95.8295 N.ar      1 <0>        -0.8390 
     29 N5         12.3883   27.2494   95.3269 N.3       1 <0>        -0.3325 
     30 N6         14.3420   29.7424   94.9399 N.pl3     1 <0>        -0.7800 
     31 N7         15.5627   34.3479   92.1445 N.pl3     1 <0>         0.0186 
     32 N8         11.0243   27.4756   95.0009 N.3       1 <0>        -0.2450 
     33 F1         18.6373   33.7448   87.9590 F         1 <0>        -0.2200 
     34 H1         21.1634   35.5899   91.2682 H         1 <0>         0.1150 
     35 H2         19.1869   35.9263   92.6920 H         1 <0>         0.1150 
     36 H3         20.9179   34.5477   89.0095 H         1 <0>         0.1150 
     37 H4         16.2353   31.5175   95.8062 H         1 <0>         0.1289 
     38 H5         16.8891   33.5773   94.6134 H         1 <0>         0.1888 
     39 H6         16.6799   34.2239   89.6123 H         1 <0>         0.1150 
     40 H7         13.2079   30.7401   92.8077 H         1 <0>         0.1691 
     41 H8         13.1012   33.0040   90.6840 H         1 <0>         0.1338 
     42 H9         18.1378   28.3051   96.7172 H         1 <0>        -0.0320 
     43 H10         7.2512   28.4198   94.5578 H         1 <0>         0.0600 
     44 H11         8.2090   29.1388   95.8308 H         1 <0>         0.0600 
     45 H12         7.9551   26.7196   96.2875 H         1 <0>         0.0600 
     46 H13         8.5617   26.3252   94.6920 H         1 <0>         0.0600 
     47 H14         9.1808   28.3279   93.0473 H         1 <0>         0.0600 
     48 H15         9.0572   29.9583   93.6677 H         1 <0>         0.0600 
     49 H16        10.1545   27.6516   96.9091 H         1 <0>         0.0600 
     50 H17        10.3304   26.0023   96.3218 H         1 <0>         0.0600 
     51 H18        10.8569   29.5511   95.2877 H         1 <0>         0.0600 
     52 H19        11.4172   29.0724   93.6930 H         1 <0>         0.0600 
     53 H20        12.4577   28.8887   96.6430 H         1 <0>         0.0600 
     54 H21        12.4766   27.3296   97.4212 H         1 <0>         0.0600 
     55 H22        16.0947   36.3327   91.8920 H         1 <0>         0.0600 
     56 H23        16.9025   35.5297   93.1948 H         1 <0>         0.0600 
     57 H24        13.5924   26.2502   98.4154 H         1 <0>         0.3600 
     58 H25        15.1449   25.7782   98.9855 H         1 <0>         0.3600 
     59 H26        12.9870   27.4623   94.5301 H         1 <0>         0.2100 
     60 H27        13.3950   29.4439   94.7731 H         1 <0>         0.3800 
@<TRIPOS>BOND
     1    1    2 ar   
     2    1    3 ar   
     3    1   34 1    
     4    2   17 ar   
     5    2   35 1    
     6    3   19 ar   
     7    3   36 1    
     8    4    5 ar   
     9    4   18 ar   
    10    4   37 1    
    11    5   20 ar   
    12    5   38 1    
    13    6   17 ar   
    14    6   19 ar   
    15    6   39 1    
    16    7   18 ar   
    17    7   21 ar   
    18    7   40 1    
    19    8   21 ar   
    20    8   26 ar   
    21    8   41 1    
    22    9   27 ar   
    23    9   28 ar   
    24    9   42 1    
    25   10   11 1    
    26   10   12 1    
    27   10   43 1    
    28   10   44 1    
    29   11   13 1    
    30   11   45 1    
    31   11   46 1    
    32   12   14 1    
    33   12   47 1    
    34   12   48 1    
    35   13   32 1    
    36   13   49 1    
    37   13   50 1    
    38   14   32 1    
    39   14   51 1    
    40   14   52 1    
    41   15   22 1    
    42   15   29 1    
    43   15   53 1    
    44   15   54 1    
    45   16   17 1    
    46   16   31 1    
    47   16   55 1    
    48   16   56 1    
    49   18   30 1    
    50   19   33 1    
    51   20   21 ar   
    52   20   31 ar   
    53   22   23 ar   
    54   22   24 ar   
    55   23   25 1    
    56   23   27 ar   
    57   24   28 ar   
    58   24   30 1    
    59   25   57 1    
    60   25   58 1    
    61   26   31 ar   
    62   29   32 1    
    63   29   59 1    
    64   30   60 1    
@<TRIPOS>SUBSTRUCTURE
     1 <0>         1 GROUP             0       ****    0 ROOT    
@<TRIPOS>MOLECULE
HYZ_1_2RGP
60   64    1
SMALL
USER_CHARGES


@<TRIPOS>ATOM
      1 C1         19.7919   35.6191   91.0801 C.ar      1 <0>        -0.1150 
      2 C2         18.5973   35.7799   91.8077 C.ar      1 <0>        -0.1150 
      3 C3         19.8039   34.8237   89.9181 C.ar      1 <0>        -0.1150 
      4 C4         15.4465   31.6212   94.6962 C.ar      1 <0>        -0.0293 
      5 C5         15.7892   32.8336   94.0777 C.ar      1 <0>        -0.3879 
      6 C6         17.4271   34.3583   90.2185 C.ar      1 <0>        -0.1150 
      7 C7         13.7652   31.2061   92.9671 C.ar      1 <0>        -0.2193 
      8 C8         13.5996   33.1932   91.2216 C.ar      1 <0>         0.0667 
      9 C9         16.7181   28.0946   96.6009 C.ar      1 <0>         0.8740 
     10 C10         8.5067   29.2325   93.9627 C.3       1 <0>        -0.1200 
     11 C11         8.3340   27.9520   94.7903 C.3       1 <0>        -0.1200 
     12 C12         9.7064   29.0897   93.0194 C.3       1 <0>        -0.1200 
     13 C13         9.6287   27.5913   95.5412 C.3       1 <0>         0.0025 
     14 C14        10.9722   28.7229   93.8077 C.3       1 <0>         0.0025 
     15 C15        12.5041   27.8626   96.4112 C.3       1 <0>         0.1175 
     16 C16        16.1356   35.4143   92.1877 C.3       1 <0>         0.1175 
     17 C17        17.4064   35.1615   91.3833 C.ar      1 <0>        -0.1150 
     18 C18        14.4536   30.7895   94.1274 C.ar      1 <0>         0.1509 
     19 C19        18.6218   34.1917   89.4902 C.ar      1 <0>         0.2200 
     20 C20        15.1001   33.2226   92.9170 C.ar      1 <0>         0.2601 
     21 C21        14.0671   32.4365   92.3433 C.ar      1 <0>         0.0183 
     22 C22        14.0273   27.9273   96.4688 C.ar      1 <0>        -0.6070 
     23 C23        14.7902   27.1863   97.3915 C.ar      1 <0>         0.8640 
     24 C24        14.7674   28.7782   95.6232 C.ar      1 <0>         0.8640 
     25 N1         14.1901   26.3255   98.2921 N.pl3     1 <0>        -0.9200 
     26 N2         14.2563   34.3215   91.0934 N.2       1 <0>        -0.4212 
     27 N3         16.1294   27.2634   97.4576 N.ar      1 <0>        -0.8390 
     28 N4         16.1162   28.8323   95.6709 N.ar      1 <0>        -0.8390 
     29 N5         12.0088   27.0686   95.2757 N.3       1 <0>        -0.3325 
     30 N6         14.0872   29.5655   94.6921 N.pl3     1 <0>        -0.7800 
     31 N7         15.1838   34.3260   92.0913 N.pl3     1 <0>         0.0186 
     32 N8         10.8052   27.5258   94.6538 N.3       1 <0>        -0.2450 
     33 F1         18.6302   33.4237   88.3740 F         1 <0>        -0.2200 
     34 H1         20.6937   36.1123   91.4172 H         1 <0>         0.1150 
     35 H2         18.5901   36.4006   92.6911 H         1 <0>         0.1150 
     36 H3         20.7177   34.7020   89.3568 H         1 <0>         0.1150 
     37 H4         15.9563   31.3462   95.6067 H         1 <0>         0.1289 
     38 H5         16.5599   33.4630   94.4983 H         1 <0>         0.1888 
     39 H6         16.5335   33.8726   89.8598 H         1 <0>         0.1150 
     40 H7         12.9982   30.5797   92.5369 H         1 <0>         0.1691 
     41 H8         12.8112   32.9506   90.5263 H         1 <0>         0.1338 
     42 H9         17.7964   28.1469   96.6424 H         1 <0>        -0.0320 
     43 H10         7.6002   29.4364   93.3930 H         1 <0>         0.0600 
     44 H11         8.6581   30.0856   94.6253 H         1 <0>         0.0600 
     45 H12         7.5123   28.0791   95.4914 H         1 <0>         0.0600 
     46 H13         8.0507   27.1257   94.1411 H         1 <0>         0.0600 
     47 H14         9.4965   28.3254   92.2727 H         1 <0>         0.0600 
     48 H15         9.8654   30.0202   92.4735 H         1 <0>         0.0600 
     49 H16         9.8116   28.3265   96.3231 H         1 <0>         0.0600 
     50 H17         9.5067   26.6279   96.0369 H         1 <0>         0.0600 
     51 H18        11.2470   29.5699   94.4360 H         1 <0>         0.0600 
     52 H19        11.7943   28.5509   93.1108 H         1 <0>         0.0600 
     53 H20        12.1319   28.8843   96.3426 H         1 <0>         0.0600 
     54 H21        12.0853   27.4631   97.3336 H         1 <0>         0.0600 
     55 H22        15.6603   36.3485   91.8922 H         1 <0>         0.0600 
     56 H23        16.3982   35.5441   93.2382 H         1 <0>         0.0600 
     57 H24        13.1904   26.3251   98.4229 H         1 <0>         0.3600 
     58 H25        14.7481   25.8617   98.9989 H         1 <0>         0.3600 
     59 H26        12.7325   26.9316   94.5723 H         1 <0>         0.2100 
     60 H27        13.1675   29.2300   94.4525 H         1 <0>         0.3800 
@<TRIPOS>BOND
     1    1    2 ar   
     2    1    3 ar   
     3    1   34 1    
     4    2   17 ar   
     5    2   35 1    
     6    3   19 ar   
     7    3   36 1    
     8    4    5 ar   
     9    4   18 ar   
    10    4   37 1    
    11    5   20 ar   
    12    5   38 1    
    13    6   17 ar   
    14    6   19 ar   
    15    6   39 1    
    16    7   18 ar   
    17    7   21 ar   
    18    7   40 1    
    19    8   21 ar   
    20    8   26 ar   
    21    8   41 1    
    22    9   27 ar   
    23    9   28 ar   
    24    9   42 1    
    25   10   11 1    
    26   10   12 1    
    27   10   43 1    
    28   10   44 1    
    29   11   13 1    
    30   11   45 1    
    31   11   46 1    
    32   12   14 1    
    33   12   47 1    
    34   12   48 1    
    35   13   32 1    
    36   13   49 1    
    37   13   50 1    
    38   14   32 1    
    39   14   51 1    
    40   14   52 1    
    41   15   22 1    
    42   15   29 1    
    43   15   53 1    
    44   15   54 1    
    45   16   17 1    
    46   16   31 1    
    47   16   55 1    
    48   16   56 1    
    49   18   30 1    
    50   19   33 1    
    51   20   21 ar   
    52   20   31 ar   
    53   22   23 ar   
    54   22   24 ar   
    55   23   25 1    
    56   23   27 ar   
    57   24   28 ar   
    58   24   30 1    
    59   25   57 1    
    60   25   58 1    
    61   26   31 ar   
    62   29   32 1    
    63   29   59 1    
    64   30   60 1    
@<TRIPOS>SUBSTRUCTURE
     1 <0>         1 GROUP             0       ****    0 ROOT    
@<TRIPOS>MOLECULE
HYZ_1_2RGP
60   64    1
SMALL
USER_CHARGES


@<TRIPOS>ATOM
      1 C1          4.1864   28.8967   93.0360 C.ar      1 <0>        -0.1150 
      2 C2          5.5300   28.7256   92.6510 C.ar      1 <0>        -0.1150 
      3 C3          3.8273   29.9780   93.8637 C.ar      1 <0>        -0.1150 
      4 C4         12.4056   29.9014   93.9563 C.ar      1 <0>        -0.0293 
      5 C5         11.0962   29.9062   93.4451 C.ar      1 <0>        -0.3879 
      6 C6          6.1553   30.7068   93.9299 C.ar      1 <0>        -0.1150 
      7 C7         11.7350   28.3134   95.6844 C.ar      1 <0>        -0.2193 
      8 C8          9.1870   27.6380   95.5086 C.ar      1 <0>         0.0667 
      9 C9         14.9456   26.6318   97.8916 C.ar      1 <0>         0.8740 
     10 C10        19.6257   34.2040   95.7537 C.3       1 <0>        -0.1200 
     11 C11        18.3162   34.0552   94.9655 C.3       1 <0>        -0.1200 
     12 C12        20.2425   32.8246   96.0301 C.3       1 <0>        -0.1200 
     13 C13        17.3566   33.0892   95.6793 C.3       1 <0>         0.0025 
     14 C14        19.2215   31.8929   96.7030 C.3       1 <0>         0.0025 
     15 C15        16.9623   29.6174   95.7250 C.3       1 <0>         0.1175 
     16 C16         7.9736   29.4063   92.7242 C.3       1 <0>         0.1175 
     17 C17         6.5204   29.6216   93.1055 C.ar      1 <0>        -0.1150 
     18 C18        12.7450   29.0952   95.0688 C.ar      1 <0>         0.1509 
     19 C19         4.8098   30.8865   94.3033 C.ar      1 <0>         0.2200 
     20 C20        10.1184   29.1041   94.0579 C.ar      1 <0>         0.2601 
     21 C21        10.4143   28.2950   95.1853 C.ar      1 <0>         0.0183 
     22 C22        16.2242   28.5245   96.4838 C.ar      1 <0>        -0.6070 
     23 C23        16.9009   27.6701   97.3831 C.ar      1 <0>         0.8640 
     24 C24        14.8291   28.3265   96.3590 C.ar      1 <0>         0.8640 
     25 N1         18.2721   27.7450   97.5899 N.pl3     1 <0>        -0.9200 
     26 N2          8.2257   27.9764   94.6877 N.2       1 <0>        -0.4212 
     27 N3         16.2561   26.7254   98.0840 N.ar      1 <0>        -0.8390 
     28 N4         14.2099   27.3582   97.0628 N.ar      1 <0>        -0.8390 
     29 N5         17.0707   30.8485   96.5036 N.3       1 <0>        -0.3325 
     30 N6         14.0865   29.1411   95.4904 N.pl3     1 <0>        -0.7800 
     31 N7          8.7739   28.8695   93.8153 N.pl3     1 <0>         0.0186 
     32 N8         17.9705   31.7792   95.9379 N.3       1 <0>        -0.2450 
     33 F1          4.4594   31.9265   95.0916 F         1 <0>        -0.2200 
     34 H1          3.4312   28.2036   92.6971 H         1 <0>         0.1150 
     35 H2          5.8036   27.8955   92.0157 H         1 <0>         0.1150 
     36 H3          2.7986   30.1138   94.1604 H         1 <0>         0.1150 
     37 H4         13.1593   30.5116   93.4763 H         1 <0>         0.1289 
     38 H5         10.8478   30.5262   92.5961 H         1 <0>         0.1888 
     39 H6          6.9082   31.3955   94.2882 H         1 <0>         0.1150 
     40 H7         11.9306   27.7044   96.5515 H         1 <0>         0.1691 
     41 H8          8.9910   26.9285   96.2977 H         1 <0>         0.1338 
     42 H9         14.4289   25.8582   98.4406 H         1 <0>        -0.0320 
     43 H10        20.3302   34.8292   95.1992 H         1 <0>         0.0600 
     44 H11        19.4231   34.7206   96.6920 H         1 <0>         0.0600 
     45 H12        17.8451   35.0305   94.8396 H         1 <0>         0.0600 
     46 H13        18.5312   33.6869   93.9619 H         1 <0>         0.0600 
     47 H14        20.5834   32.3778   95.0944 H         1 <0>         0.0600 
     48 H15        21.1260   32.9265   96.6613 H         1 <0>         0.0600 
     49 H16        17.0398   33.5233   96.6303 H         1 <0>         0.0600 
     50 H17        16.4593   32.9507   95.0754 H         1 <0>         0.0600 
     51 H18        18.9878   32.2675   97.7012 H         1 <0>         0.0600 
     52 H19        19.6554   30.9015   96.8282 H         1 <0>         0.0600 
     53 H20        16.4836   29.8344   94.7694 H         1 <0>         0.0600 
     54 H21        17.9681   29.2642   95.4949 H         1 <0>         0.0600 
     55 H22         8.4015   30.3588   92.4100 H         1 <0>         0.0600 
     56 H23         8.0520   28.7272   91.8746 H         1 <0>         0.0600 
     57 H24        18.8559   28.2701   96.9524 H         1 <0>         0.3600 
     58 H25        18.7363   27.0301   98.1274 H         1 <0>         0.3600 
     59 H26        16.1572   31.2899   96.5936 H         1 <0>         0.2100 
     60 H27        14.6479   29.8280   95.0144 H         1 <0>         0.3800 
@<TRIPOS>BOND
     1    1    2 ar   
     2    1    3 ar   
     3    1   34 1    
     4    2   17 ar   
     5    2   35 1    
     6    3   19 ar   
     7    3   36 1    
     8    4    5 ar   
     9    4   18 ar   
    10    4   37 1    
    11    5   20 ar   
    12    5   38 1    
    13    6   17 ar   
    14    6   19 ar   
    15    6   39 1    
    16    7   18 ar   
    17    7   21 ar   
    18    7   40 1    
    19    8   21 ar   
    20    8   26 ar   
    21    8   41 1    
    22    9   27 ar   
    23    9   28 ar   
    24    9   42 1    
    25   10   11 1    
    26   10   12 1    
    27   10   43 1    
    28   10   44 1    
    29   11   13 1    
    30   11   45 1    
    31   11   46 1    
    32   12   14 1    
    33   12   47 1    
    34   12   48 1    
    35   13   32 1    
    36   13   49 1    
    37   13   50 1    
    38   14   32 1    
    39   14   51 1    
    40   14   52 1    
    41   15   22 1    
    42   15   29 1    
    43   15   53 1    
    44   15   54 1    
    45   16   17 1    
    46   16   31 1    
    47   16   55 1    
    48   16   56 1    
    49   18   30 1    
    50   19   33 1    
    51   20   21 ar   
    52   20   31 ar   
    53   22   23 ar   
    54   22   24 ar   
    55   23   25 1    
    56   23   27 ar   
    57   24   28 ar   
    58   24   30 1    
    59   25   57 1    
    60   25   58 1    
    61   26   31 ar   
    62   29   32 1    
    63   29   59 1    
    64   30   60 1    
@<TRIPOS>SUBSTRUCTURE
     1 <0>         1 GROUP             0       ****    0 ROOT    
@<TRIPOS>MOLECULE
HYZ_1_2RGP
60   64    1
SMALL
USER_CHARGES


@<TRIPOS>ATOM
      1 C1         20.1070   35.8120   90.6056 C.ar      1 <0>        -0.1150 
      2 C2         18.9861   35.9251   91.4463 C.ar      1 <0>        -0.1150 
      3 C3         20.0653   34.9583   89.4874 C.ar      1 <0>        -0.1150 
      4 C4         15.5963   31.8159   94.8776 C.ar      1 <0>        -0.0293 
      5 C5         16.0384   32.9620   94.1963 C.ar      1 <0>        -0.3879 
      6 C6         17.7792   34.3257   90.0665 C.ar      1 <0>        -0.1150 
      7 C7         13.9066   31.4329   93.1506 C.ar      1 <0>        -0.2193 
      8 C8         13.9420   33.2781   91.2663 C.ar      1 <0>         0.0667 
      9 C9         16.7838   28.1959   96.6204 C.ar      1 <0>         0.8740 
     10 C10         9.0925   29.2122   92.7330 C.3       1 <0>        -0.1200 
     11 C11        10.5749   29.5893   92.6075 C.3       1 <0>        -0.1200 
     12 C12         8.7366   28.9261   94.2018 C.3       1 <0>        -0.1200 
     13 C13        11.4622   28.5179   93.2607 C.3       1 <0>         0.0025 
     14 C14         9.6910   27.8808   94.8058 C.3       1 <0>         0.0025 
     15 C15        12.5636   27.9836   96.5618 C.3       1 <0>         0.1175 
     16 C16        16.6157   35.3867   92.1211 C.3       1 <0>         0.1175 
     17 C17        17.8107   35.1874   91.1891 C.ar      1 <0>        -0.1150 
     18 C18        14.5503   31.0281   94.3392 C.ar      1 <0>         0.1509 
     19 C19        18.9009   34.2142   89.2204 C.ar      1 <0>         0.2200 
     20 C20        15.4119   33.3211   92.9903 C.ar      1 <0>         0.2601 
     21 C21        14.3259   32.5827   92.4523 C.ar      1 <0>         0.0183 
     22 C22        14.0886   28.0452   96.5707 C.ar      1 <0>        -0.6070 
     23 C23        14.8801   27.2399   97.4165 C.ar      1 <0>         0.8640 
     24 C24        14.8024   28.9675   95.7752 C.ar      1 <0>         0.8640 
     25 N1         14.3171   26.3254   98.2919 N.pl3     1 <0>        -0.9200 
     26 N2         14.6999   34.3259   91.0608 N.2       1 <0>        -0.4212 
     27 N3         16.2200   27.3106   97.4377 N.ar      1 <0>        -0.8390 
     28 N4         16.1533   29.0066   95.7752 N.ar      1 <0>        -0.8390 
     29 N5         12.0047   27.4031   95.3339 N.3       1 <0>        -0.3325 
     30 N6         14.0989   29.8582   94.9570 N.pl3     1 <0>        -0.7800 
     31 N7         15.6110   34.3390   92.0752 N.pl3     1 <0>         0.0186 
     32 N8         11.1027   28.2718   94.6639 N.3       1 <0>        -0.2450 
     33 F1         18.8567   33.3896   88.1471 F         1 <0>        -0.2200 
     34 H1         20.9957   36.3899   90.8230 H         1 <0>         0.1150 
     35 H2         19.0287   36.5958   92.2918 H         1 <0>         0.1150 
     36 H3         20.9240   34.8746   88.8381 H         1 <0>         0.1150 
     37 H4         16.0688   31.5481   95.8100 H         1 <0>         0.1289 
     38 H5         16.8529   33.5506   94.5902 H         1 <0>         0.1888 
     39 H6         16.9008   33.7475   89.8294 H         1 <0>         0.1150 
     40 H7         13.0960   30.8543   92.7393 H         1 <0>         0.1691 
     41 H8         13.1451   33.0500   90.5744 H         1 <0>         0.1338 
     42 H9         17.8620   28.2451   96.6244 H         1 <0>        -0.0320 
     43 H10         8.4620   30.0113   92.3395 H         1 <0>         0.0600 
     44 H11         8.8939   28.3274   92.1285 H         1 <0>         0.0600 
     45 H12        10.8475   29.7097   91.5589 H         1 <0>         0.0600 
     46 H13        10.7465   30.5547   93.0889 H         1 <0>         0.0600 
     47 H14         8.7926   29.8516   94.7807 H         1 <0>         0.0600 
     48 H15         7.7053   28.5756   94.2739 H         1 <0>         0.0600 
     49 H16        11.3892   27.5841   92.7075 H         1 <0>         0.0600 
     50 H17        12.5043   28.8202   93.2086 H         1 <0>         0.0600 
     51 H18         9.5401   26.9210   94.3100 H         1 <0>         0.0600 
     52 H19         9.4610   27.7395   95.8641 H         1 <0>         0.0600 
     53 H20        12.1816   28.9974   96.6925 H         1 <0>         0.0600 
     54 H21        12.1892   27.4119   97.4090 H         1 <0>         0.0600 
     55 H22        16.1278   36.3282   91.8958 H         1 <0>         0.0600 
     56 H23        16.9751   35.4793   93.1472 H         1 <0>         0.0600 
     57 H24        13.3254   26.3276   98.4710 H         1 <0>         0.3600 
     58 H25        14.9009   25.8425   98.9663 H         1 <0>         0.3600 
     59 H26        12.7518   27.1334   94.6964 H         1 <0>         0.2100 
     60 H27        13.1319   29.6098   94.7992 H         1 <0>         0.3800 
@<TRIPOS>BOND
     1    1    2 ar   
     2    1    3 ar   
     3    1   34 1    
     4    2   17 ar   
     5    2   35 1    
     6    3   19 ar   
     7    3   36 1    
     8    4    5 ar   
     9    4   18 ar   
    10    4   37 1    
    11    5   20 ar   
    12    5   38 1    
    13    6   17 ar   
    14    6   19 ar   
    15    6   39 1    
    16    7   18 ar   
    17    7   21 ar   
    18    7   40 1    
    19    8   21 ar   
    20    8   26 ar   
    21    8   41 1    
    22    9   27 ar   
    23    9   28 ar   
    24    9   42 1    
    25   10   11 1    
    26   10   12 1    
    27   10   43 1    
    28   10   44 1    
    29   11   13 1    
    30   11   45 1    
    31   11   46 1    
    32   12   14 1    
    33   12   47 1    
    34   12   48 1    
    35   13   32 1    
    36   13   49 1    
    37   13   50 1    
    38   14   32 1    
    39   14   51 1    
    40   14   52 1    
    41   15   22 1    
    42   15   29 1    
    43   15   53 1    
    44   15   54 1    
    45   16   17 1    
    46   16   31 1    
    47   16   55 1    
    48   16   56 1    
    49   18   30 1    
    50   19   33 1    
    51   20   21 ar   
    52   20   31 ar   
    53   22   23 ar   
    54   22   24 ar   
    55   23   25 1    
    56   23   27 ar   
    57   24   28 ar   
    58   24   30 1    
    59   25   57 1    
    60   25   58 1    
    61   26   31 ar   
    62   29   32 1    
    63   29   59 1    
    64   30   60 1    
@<TRIPOS>SUBSTRUCTURE
     1 <0>         1 GROUP             0       ****    0 ROOT    
