@<TRIPOS>MOLECULE
E4D_600_1SJ0
63   67    1
SMALL
USER_CHARGES


@<TRIPOS>ATOM
      1 C1         33.2630    0.3885   29.4544 C.ar      1 <0>        -0.1150 
      2 C2         32.3478    1.4279   27.4345 C.ar      1 <0>        -0.1150 
      3 C3         30.9640   -1.0032   25.6531 C.ar      1 <0>        -0.1150 
      4 C4         32.4128   -2.8205   26.3421 C.ar      1 <0>        -0.1150 
      5 C5         34.4986    0.9992   29.2120 C.ar      1 <0>        -0.1150 
      6 C6         33.5802    2.0476   27.1976 C.ar      1 <0>        -0.1150 
      7 C7         31.3347   -1.2213   24.3158 C.ar      1 <0>        -0.1150 
      8 C8         32.7753   -3.0530   24.9981 C.ar      1 <0>        -0.1150 
      9 C9         26.5621   -2.8004   27.3684 C.ar      1 <0>        -0.1150 
     10 C10        27.8496   -3.0905   27.8292 C.ar      1 <0>        -0.1150 
     11 C11        27.0647   -0.4100   27.3963 C.ar      1 <0>        -0.1150 
     12 C12        31.7696   -3.5325   17.5417 C.3       1 <0>        -0.1200 
     13 C13        30.7897   -3.6181   18.7209 C.3       1 <0>        -0.1200 
     14 C14        32.8969   -4.5567   17.7259 C.3       1 <0>        -0.1200 
     15 C15        31.5290   -3.4350   20.0554 C.3       1 <0>         0.1500 
     16 C16        33.6051   -4.3677   19.0782 C.3       1 <0>         0.1500 
     17 C17        33.2693   -4.4397   21.5492 C.3       1 <0>        -0.0744 
     18 C18        33.6565   -3.0741   22.1542 C.3       1 <0>         0.3644 
     19 C19        31.5042   -1.7946   26.6908 C.ar      1 <0>        -0.0418 
     20 C20        32.1940    0.5868   28.5567 C.ar      1 <0>        -0.1150 
     21 C21        34.6436    1.8160   28.0813 C.ar      1 <0>         0.1500 
     22 C22        32.2356   -2.2465   23.9705 C.ar      1 <0>         0.0850 
     23 C23        26.1828   -1.4676   27.1267 C.ar      1 <0>         0.1500 
     24 C24        28.7557   -2.0452   28.0622 C.ar      1 <0>         0.0850 
     25 C25        28.3549   -0.6979   27.8681 C.ar      1 <0>         0.1525 
     26 C26        31.0949   -1.6296   28.1666 C.3       1 <0>         0.2118 
     27 C27        30.9434   -0.2229   28.7739 C.3       1 <0>         0.2225 
     28 N1         32.6356   -4.4178   20.2034 N.4       1 <0>        -0.1000 
     29 O1         35.8355    2.3821   27.8291 O.3       1 <0>        -0.5850 
     30 O2         24.9527   -1.2179   26.6148 O.3       1 <0>        -0.5850 
     31 O3         29.9843   -2.4179   28.5239 O.3       1 <0>        -0.2850 
     32 O4         32.4987   -2.3885   22.6275 O.3       1 <0>        -0.2850 
     33 S1         29.4434    0.6363   28.2284 S.3       1 <0>        -0.3200 
     34 H1         33.1557   -0.2679   30.3062 H         1 <0>         0.1150 
     35 H2         31.5460    1.5788   26.7278 H         1 <0>         0.1150 
     36 H3         30.2522   -0.2207   25.8496 H         1 <0>         0.1150 
     37 H4         32.8245   -3.4583   27.1106 H         1 <0>         0.1150 
     38 H5         35.3318    0.8266   29.8777 H         1 <0>         0.1150 
     39 H6         33.7170    2.6770   26.3301 H         1 <0>         0.1150 
     40 H7         30.9114   -0.6001   23.5409 H         1 <0>         0.1150 
     41 H8         33.4497   -3.8670   24.7796 H         1 <0>         0.1150 
     42 H9         25.8670   -3.6073   27.1848 H         1 <0>         0.1150 
     43 H10        28.1466   -4.1160   27.9949 H         1 <0>         0.1150 
     44 H11        26.7562    0.6117   27.2291 H         1 <0>         0.1150 
     45 H12        31.2549   -3.7160   16.5989 H         1 <0>         0.0600 
     46 H13        32.1866   -2.5261   17.4784 H         1 <0>         0.0600 
     47 H14        30.0139   -2.8569   18.6289 H         1 <0>         0.0600 
     48 H15        30.2786   -4.5828   18.7061 H         1 <0>         0.0600 
     49 H16        32.4866   -5.5668   17.6673 H         1 <0>         0.0600 
     50 H17        33.6177   -4.4678   16.9119 H         1 <0>         0.0600 
     51 H18        31.9206   -2.4180   20.1065 H         1 <0>         0.0600 
     52 H19        30.8234   -3.5547   20.8793 H         1 <0>         0.0600 
     53 H20        34.1329   -3.4130   19.0948 H         1 <0>         0.0600 
     54 H21        34.3568   -5.1498   19.1964 H         1 <0>         0.0600 
     55 H22        32.5932   -4.9516   22.2336 H         1 <0>         0.0600 
     56 H23        34.1617   -5.0568   21.4403 H         1 <0>         0.0600 
     57 H24        34.4092   -3.1924   22.9329 H         1 <0>         0.0300 
     58 H25        34.1335   -2.4540   21.3950 H         1 <0>         0.0300 
     59 H26        31.9176   -2.0750   28.7273 H         1 <0>         0.0300 
     60 H27        30.8174   -0.3456   29.8495 H         1 <0>         0.0600 
     61 H28        32.1438   -5.3290   20.1449 H         1 <0>         0.2900 
     62 H29        36.5513    1.9825   28.3131 H         1 <0>         0.4350 
     63 H30        24.6270   -2.0435   26.2292 H         1 <0>         0.4350 
@<TRIPOS>BOND
     1    1    5 ar   
     2    1   20 ar   
     3    1   34 1    
     4    2    6 ar   
     5    2   20 ar   
     6    2   35 1    
     7    3    7 ar   
     8    3   19 ar   
     9    3   36 1    
    10    4    8 ar   
    11    4   19 ar   
    12    4   37 1    
    13    5   21 ar   
    14    5   38 1    
    15    6   21 ar   
    16    6   39 1    
    17    7   22 ar   
    18    7   40 1    
    19    8   22 ar   
    20    8   41 1    
    21    9   10 ar   
    22    9   23 ar   
    23    9   42 1    
    24   10   24 ar   
    25   10   43 1    
    26   11   23 ar   
    27   11   25 ar   
    28   11   44 1    
    29   12   13 1    
    30   12   14 1    
    31   12   45 1    
    32   12   46 1    
    33   13   15 1    
    34   13   47 1    
    35   13   48 1    
    36   14   16 1    
    37   14   49 1    
    38   14   50 1    
    39   15   28 1    
    40   15   51 1    
    41   15   52 1    
    42   16   28 1    
    43   16   53 1    
    44   16   54 1    
    45   17   18 1    
    46   17   28 1    
    47   17   55 1    
    48   17   56 1    
    49   18   32 1    
    50   18   57 1    
    51   18   58 1    
    52   19   26 1    
    53   20   27 1    
    54   21   29 1    
    55   22   32 1    
    56   23   30 1    
    57   24   25 ar   
    58   24   31 1    
    59   25   33 1    
    60   26   27 1    
    61   26   31 1    
    62   26   59 1    
    63   27   33 1    
    64   27   60 1    
    65   28   61 1    
    66   29   62 1    
    67   30   63 1    
@<TRIPOS>SUBSTRUCTURE
     1 <0>         1 GROUP             0       ****    0 ROOT    
@<TRIPOS>MOLECULE
E4D_600_1SJ0
63   67    1
SMALL
USER_CHARGES


@<TRIPOS>ATOM
      1 C1         33.2791    0.3587   29.4296 C.ar      1 <0>        -0.1150 
      2 C2         32.3595    1.4200   27.4203 C.ar      1 <0>        -0.1150 
      3 C3         30.9792   -1.0251   25.6078 C.ar      1 <0>        -0.1150 
      4 C4         32.4129   -2.8523   26.2874 C.ar      1 <0>        -0.1150 
      5 C5         34.5119    0.9764   29.1947 C.ar      1 <0>        -0.1150 
      6 C6         33.5887    2.0457   27.1906 C.ar      1 <0>        -0.1150 
      7 C7         31.3393   -1.2525   24.2663 C.ar      1 <0>        -0.1150 
      8 C8         32.7692   -3.0880   24.9399 C.ar      1 <0>        -0.1150 
      9 C9         26.6263   -2.8085   27.2482 C.ar      1 <0>        -0.1150 
     10 C10        27.8864   -3.0955   27.7789 C.ar      1 <0>        -0.1150 
     11 C11        27.1045   -0.4171   27.3205 C.ar      1 <0>        -0.1150 
     12 C12        32.0282   -3.5835   17.3101 C.3       1 <0>        -0.1200 
     13 C13        30.9643   -3.5640   18.4202 C.3       1 <0>        -0.1200 
     14 C14        33.0906   -4.6457   17.6213 C.3       1 <0>        -0.1200 
     15 C15        31.6026   -3.3834   19.8092 C.3       1 <0>         0.1500 
     16 C16        33.6985   -4.4346   19.0198 C.3       1 <0>         0.1500 
     17 C17        33.1400   -4.4963   21.4569 C.3       1 <0>        -0.0744 
     18 C18        33.6099   -3.1691   22.0847 C.3       1 <0>         0.3644 
     19 C19        31.5150   -1.8189   26.6457 C.ar      1 <0>        -0.0418 
     20 C20        32.2111    0.5672   28.5338 C.ar      1 <0>        -0.1150 
     21 C21        34.6499    1.8068   28.0739 C.ar      1 <0>         0.1500 
     22 C22        32.2332   -2.2803   23.9081 C.ar      1 <0>         0.0850 
     23 C23        26.2360   -1.4756   27.0113 C.ar      1 <0>         0.1500 
     24 C24        28.7815   -2.0488   28.0336 C.ar      1 <0>         0.0850 
     25 C25        28.3816   -0.7040   27.8290 C.ar      1 <0>         0.1525 
     26 C26        31.1175   -1.6460   28.1286 C.3       1 <0>         0.2118 
     27 C27        30.9644   -0.2421   28.7443 C.3       1 <0>         0.2225 
     28 N1         32.6369   -4.4174   20.0593 N.4       1 <0>        -0.1000 
     29 O1         35.8355    2.3821   27.8293 O.3       1 <0>        -0.5850 
     30 O2         25.0151   -1.2180   26.4725 O.3       1 <0>        -0.5850 
     31 O3         30.0052   -2.4181   28.5095 O.3       1 <0>        -0.2850 
     32 O4         32.4931   -2.4175   22.5580 O.3       1 <0>        -0.2850 
     33 S1         29.4646    0.6270   28.2120 S.3       1 <0>        -0.3200 
     34 H1         33.1723   -0.3073   30.2742 H         1 <0>         0.1150 
     35 H2         31.5571    1.5779   26.7162 H         1 <0>         0.1150 
     36 H3         30.2769   -0.2351   25.8117 H         1 <0>         0.1150 
     37 H4         32.8252   -3.4924   27.0541 H         1 <0>         0.1150 
     38 H5         35.3468    0.7996   29.8577 H         1 <0>         0.1150 
     39 H6         33.7233    2.6850   26.3304 H         1 <0>         0.1150 
     40 H7         30.9155   -0.6257   23.4963 H         1 <0>         0.1150 
     41 H8         33.4409   -3.9062   24.7262 H         1 <0>         0.1150 
     42 H9         25.9537   -3.6247   27.0324 H         1 <0>         0.1150 
     43 H10        28.1814   -4.1206   27.9498 H         1 <0>         0.1150 
     44 H11        26.7975    0.6049   27.1503 H         1 <0>         0.1150 
     45 H12        31.5698   -3.7840   16.3378 H         1 <0>         0.0600 
     46 H13        32.4991   -2.6022   17.2348 H         1 <0>         0.0600 
     47 H14        30.2541   -2.7581   18.2342 H         1 <0>         0.0600 
     48 H15        30.3940   -4.4935   18.3980 H         1 <0>         0.0600 
     49 H16        32.6394   -5.6371   17.5692 H         1 <0>         0.0600 
     50 H17        33.8757   -4.6239   16.8645 H         1 <0>         0.0600 
     51 H18        32.0587   -2.4000   19.8738 H         1 <0>         0.0600 
     52 H19        30.8328   -3.4392   20.5796 H         1 <0>         0.0600 
     53 H20        34.2611   -3.5011   19.0534 H         1 <0>         0.0600 
     54 H21        34.4070   -5.2393   19.2216 H         1 <0>         0.0600 
     55 H22        32.3650   -4.9444   22.0819 H         1 <0>         0.0600 
     56 H23        33.9694   -5.2029   21.4298 H         1 <0>         0.0600 
     57 H24        34.3448   -3.3517   22.8666 H         1 <0>         0.0300 
     58 H25        34.1388   -2.5699   21.3430 H         1 <0>         0.0300 
     59 H26        31.9427   -2.0950   28.6825 H         1 <0>         0.0300 
     60 H27        30.8406   -0.3736   29.8202 H         1 <0>         0.0600 
     61 H28        32.1171   -5.3082   19.9635 H         1 <0>         0.2900 
     62 H29        36.5535    1.9877   28.3164 H         1 <0>         0.4350 
     63 H30        24.6418   -2.0548   26.1596 H         1 <0>         0.4350 
@<TRIPOS>BOND
     1    1    5 ar   
     2    1   20 ar   
     3    1   34 1    
     4    2    6 ar   
     5    2   20 ar   
     6    2   35 1    
     7    3    7 ar   
     8    3   19 ar   
     9    3   36 1    
    10    4    8 ar   
    11    4   19 ar   
    12    4   37 1    
    13    5   21 ar   
    14    5   38 1    
    15    6   21 ar   
    16    6   39 1    
    17    7   22 ar   
    18    7   40 1    
    19    8   22 ar   
    20    8   41 1    
    21    9   10 ar   
    22    9   23 ar   
    23    9   42 1    
    24   10   24 ar   
    25   10   43 1    
    26   11   23 ar   
    27   11   25 ar   
    28   11   44 1    
    29   12   13 1    
    30   12   14 1    
    31   12   45 1    
    32   12   46 1    
    33   13   15 1    
    34   13   47 1    
    35   13   48 1    
    36   14   16 1    
    37   14   49 1    
    38   14   50 1    
    39   15   28 1    
    40   15   51 1    
    41   15   52 1    
    42   16   28 1    
    43   16   53 1    
    44   16   54 1    
    45   17   18 1    
    46   17   28 1    
    47   17   55 1    
    48   17   56 1    
    49   18   32 1    
    50   18   57 1    
    51   18   58 1    
    52   19   26 1    
    53   20   27 1    
    54   21   29 1    
    55   22   32 1    
    56   23   30 1    
    57   24   25 ar   
    58   24   31 1    
    59   25   33 1    
    60   26   27 1    
    61   26   31 1    
    62   26   59 1    
    63   27   33 1    
    64   27   60 1    
    65   28   61 1    
    66   29   62 1    
    67   30   63 1    
@<TRIPOS>SUBSTRUCTURE
     1 <0>         1 GROUP             0       ****    0 ROOT    
@<TRIPOS>MOLECULE
E4D_600_1SJ0
63   67    1
SMALL
USER_CHARGES


@<TRIPOS>ATOM
      1 C1         33.2839    0.3804   29.4920 C.ar      1 <0>        -0.1150 
      2 C2         32.3354    1.4287   27.4947 C.ar      1 <0>        -0.1150 
      3 C3         30.9392   -0.9684   25.7466 C.ar      1 <0>        -0.1150 
      4 C4         32.3600   -2.8193   26.3942 C.ar      1 <0>        -0.1150 
      5 C5         34.5172    0.9909   29.2297 C.ar      1 <0>        -0.1150 
      6 C6         33.5655    2.0465   27.2367 C.ar      1 <0>        -0.1150 
      7 C7         31.3303   -1.1393   24.4098 C.ar      1 <0>        -0.1150 
      8 C8         32.7380   -3.0080   25.0484 C.ar      1 <0>        -0.1150 
      9 C9         26.6254   -2.8068   27.2637 C.ar      1 <0>        -0.1150 
     10 C10        27.8779   -3.0944   27.8109 C.ar      1 <0>        -0.1150 
     11 C11        27.0944   -0.4146   27.3701 C.ar      1 <0>        -0.1150 
     12 C12        33.4337   -4.1788   17.2744 C.3       1 <0>        -0.1200 
     13 C13        32.0906   -3.6328   17.7810 C.3       1 <0>        -0.1200 
     14 C14        33.8907   -5.3565   18.1493 C.3       1 <0>        -0.1200 
     15 C15        32.1727   -3.2593   19.2704 C.3       1 <0>         0.1500 
     16 C16        33.9448   -4.9610   19.6347 C.3       1 <0>         0.1500 
     17 C17        32.4800   -4.2523   21.5420 C.3       1 <0>        -0.0744 
     18 C18        33.4017   -3.1952   22.1710 C.3       1 <0>         0.3644 
     19 C19        31.4688   -1.7893   26.7673 C.ar      1 <0>        -0.0418 
     20 C20        32.1971    0.5837   28.6164 C.ar      1 <0>        -0.1150 
     21 C21        34.6459    1.8133   28.1003 C.ar      1 <0>         0.1500 
     22 C22        32.2356   -2.1481   24.0417 C.ar      1 <0>         0.0850 
     23 C23        26.2355   -1.4734   27.0316 C.ar      1 <0>         0.1500 
     24 C24        28.7585   -2.0466   28.1097 C.ar      1 <0>         0.0850 
     25 C25        28.3616   -0.6994   27.9071 C.ar      1 <0>         0.1525 
     26 C26        31.0825   -1.6348   28.2502 C.3       1 <0>         0.2118 
     27 C27        30.9447   -0.2230   28.8546 C.3       1 <0>         0.2225 
     28 N1         32.6356   -4.4179   20.0753 N.4       1 <0>        -0.1000 
     29 O1         35.8355    2.3820   27.8292 O.3       1 <0>        -0.5850 
     30 O2         25.0222   -1.2179   26.4734 O.3       1 <0>        -0.5850 
     31 O3         29.9698   -2.4179   28.6161 O.3       1 <0>        -0.2850 
     32 O4         32.5828   -2.1703   22.7093 O.3       1 <0>        -0.2850 
     33 S1         29.4361    0.6363   28.3205 S.3       1 <0>        -0.3200 
     34 H1         33.1900   -0.2791   30.3431 H         1 <0>         0.1150 
     35 H2         31.5225    1.5819   26.8025 H         1 <0>         0.1150 
     36 H3         30.2364   -0.1820   25.9548 H         1 <0>         0.1150 
     37 H4         32.7634   -3.4801   27.1472 H         1 <0>         0.1150 
     38 H5         35.3610    0.8147   29.8809 H         1 <0>         0.1150 
     39 H6         33.6872    2.6774   26.3685 H         1 <0>         0.1150 
     40 H7         30.9343   -0.4763   23.6551 H         1 <0>         0.1150 
     41 H8         33.4272   -3.8090   24.8324 H         1 <0>         0.1150 
     42 H9         25.9604   -3.6241   27.0294 H         1 <0>         0.1150 
     43 H10        28.1749   -4.1200   27.9762 H         1 <0>         0.1150 
     44 H11        26.7870    0.6076   27.2027 H         1 <0>         0.1150 
     45 H12        33.3415   -4.4952   16.2346 H         1 <0>         0.0600 
     46 H13        34.1857   -3.3888   17.2946 H         1 <0>         0.0600 
     47 H14        31.7951   -2.7630   17.1942 H         1 <0>         0.0600 
     48 H15        31.3117   -4.3830   17.6343 H         1 <0>         0.0600 
     49 H16        33.2023   -6.1942   18.0237 H         1 <0>         0.0600 
     50 H17        34.8686   -5.7107   17.8219 H         1 <0>         0.0600 
     51 H18        32.8489   -2.4149   19.4060 H         1 <0>         0.0600 
     52 H19        31.1902   -2.9374   19.6188 H         1 <0>         0.0600 
     53 H20        34.7366   -4.2297   19.7989 H         1 <0>         0.0600 
     54 H21        34.1926   -5.8410   20.2291 H         1 <0>         0.0600 
     55 H22        31.4348   -4.0156   21.7471 H         1 <0>         0.0600 
     56 H23        32.6353   -5.2178   22.0141 H         1 <0>         0.0600 
     57 H24        34.1058   -3.6331   22.8748 H         1 <0>         0.0300 
     58 H25        34.0281   -2.7204   21.4168 H         1 <0>         0.0300 
     59 H26        31.9103   -2.0855   28.7987 H         1 <0>         0.0300 
     60 H27        30.8356   -0.3387   29.9328 H         1 <0>         0.0600 
     61 H28        31.9699   -5.1788   19.8871 H         1 <0>         0.2900 
     62 H29        36.5581    1.9846   28.3051 H         1 <0>         0.4350 
     63 H30        24.6477   -2.0509   26.1531 H         1 <0>         0.4350 
@<TRIPOS>BOND
     1    1    5 ar   
     2    1   20 ar   
     3    1   34 1    
     4    2    6 ar   
     5    2   20 ar   
     6    2   35 1    
     7    3    7 ar   
     8    3   19 ar   
     9    3   36 1    
    10    4    8 ar   
    11    4   19 ar   
    12    4   37 1    
    13    5   21 ar   
    14    5   38 1    
    15    6   21 ar   
    16    6   39 1    
    17    7   22 ar   
    18    7   40 1    
    19    8   22 ar   
    20    8   41 1    
    21    9   10 ar   
    22    9   23 ar   
    23    9   42 1    
    24   10   24 ar   
    25   10   43 1    
    26   11   23 ar   
    27   11   25 ar   
    28   11   44 1    
    29   12   13 1    
    30   12   14 1    
    31   12   45 1    
    32   12   46 1    
    33   13   15 1    
    34   13   47 1    
    35   13   48 1    
    36   14   16 1    
    37   14   49 1    
    38   14   50 1    
    39   15   28 1    
    40   15   51 1    
    41   15   52 1    
    42   16   28 1    
    43   16   53 1    
    44   16   54 1    
    45   17   18 1    
    46   17   28 1    
    47   17   55 1    
    48   17   56 1    
    49   18   32 1    
    50   18   57 1    
    51   18   58 1    
    52   19   26 1    
    53   20   27 1    
    54   21   29 1    
    55   22   32 1    
    56   23   30 1    
    57   24   25 ar   
    58   24   31 1    
    59   25   33 1    
    60   26   27 1    
    61   26   31 1    
    62   26   59 1    
    63   27   33 1    
    64   27   60 1    
    65   28   61 1    
    66   29   62 1    
    67   30   63 1    
@<TRIPOS>SUBSTRUCTURE
     1 <0>         1 GROUP             0       ****    0 ROOT    
@<TRIPOS>MOLECULE
E4D_600_1SJ0
63   67    1
SMALL
USER_CHARGES


@<TRIPOS>ATOM
      1 C1         32.5740    0.7732   27.2218 C.ar      1 <0>        -0.1150 
      2 C2         33.1690    0.4700   29.5644 C.ar      1 <0>        -0.1150 
      3 C3         30.6376   -1.0894   25.8477 C.ar      1 <0>        -0.1150 
      4 C4         32.2440   -2.8833   26.1947 C.ar      1 <0>        -0.1150 
      5 C5         33.7709    1.4837   27.0093 C.ar      1 <0>        -0.1150 
      6 C6         34.3675    1.1780   29.3521 C.ar      1 <0>        -0.1150 
      7 C7         30.9014   -1.1164   24.4650 C.ar      1 <0>        -0.1150 
      8 C8         32.5057   -2.9121   24.8117 C.ar      1 <0>        -0.1150 
      9 C9         26.3850   -2.8455   27.4368 C.ar      1 <0>        -0.1150 
     10 C10        27.6520   -3.1979   27.9408 C.ar      1 <0>        -0.1150 
     11 C11        27.1437   -0.5494   27.1461 C.ar      1 <0>        -0.1150 
     12 C12        32.8179   -5.8168   17.2258 C.3       1 <0>        -0.1200 
     13 C13        31.6611   -4.9233   17.6918 C.3       1 <0>        -0.1200 
     14 C14        33.6194   -6.2932   18.4443 C.3       1 <0>        -0.1200 
     15 C15        32.1728   -3.7857   18.5930 C.3       1 <0>         0.1500 
     16 C16        34.0884   -5.1280   19.3581 C.3       1 <0>         0.1500 
     17 C17        33.2017   -3.3432   20.8137 C.3       1 <0>        -0.0744 
     18 C18        32.2392   -3.4176   22.0089 C.3       1 <0>         0.3644 
     19 C19        31.3052   -1.9737   26.7216 C.ar      1 <0>        -0.0418 
     20 C20        32.2611    0.2624   28.5010 C.ar      1 <0>        -0.1150 
     21 C21        34.6685    1.6872   28.0742 C.ar      1 <0>         0.1500 
     22 C22        31.8423   -2.0327   23.9320 C.ar      1 <0>         0.0850 
     23 C23        26.1312   -1.5209   27.0354 C.ar      1 <0>         0.1500 
     24 C24        28.6810   -2.2393   28.0437 C.ar      1 <0>         0.0850 
     25 C25        28.4108   -0.8995   27.6528 C.ar      1 <0>         0.1525 
     26 C26        31.0573   -1.9239   28.2224 C.3       1 <0>         0.2118 
     27 C27        30.9492   -0.4797   28.7121 C.3       1 <0>         0.2225 
     28 N1         32.8881   -4.3524   19.7688 N.4       1 <0>        -0.1000 
     29 O1         35.8261    2.3775   27.8652 O.3       1 <0>        -0.5850 
     30 O2         24.9051   -1.1766   26.5469 O.3       1 <0>        -0.5850 
     31 O3         29.8890   -2.6727   28.5503 O.3       1 <0>        -0.2850 
     32 O4         32.1642   -2.1255   22.5951 O.3       1 <0>        -0.2850 
     33 S1         29.6357    0.3605   27.8043 S.3       1 <0>        -0.3200 
     34 H1         31.8929    0.6289   26.3960 H         1 <0>         0.1150 
     35 H2         32.9539    0.0901   30.5513 H         1 <0>         0.1150 
     36 H3         29.9278   -0.3739   26.2374 H         1 <0>         0.1150 
     37 H4         32.7713   -3.5595   26.8520 H         1 <0>         0.1150 
     38 H5         33.9994    1.8716   26.0273 H         1 <0>         0.1150 
     39 H6         35.0513    1.3282   30.1747 H         1 <0>         0.1150 
     40 H7         30.3701   -0.4159   23.8392 H         1 <0>         0.1150 
     41 H8         33.2293   -3.6143   24.4242 H         1 <0>         0.1150 
     42 H9         25.6088   -3.5923   27.3585 H         1 <0>         0.1150 
     43 H10        27.8382   -4.2171   28.2455 H         1 <0>         0.1150 
     44 H11        26.9432    0.4688   26.8469 H         1 <0>         0.1150 
     45 H12        32.4207   -6.6775   16.6876 H         1 <0>         0.0600 
     46 H13        33.4624   -5.2806   16.5294 H         1 <0>         0.0600 
     47 H14        31.1430   -4.5068   16.8280 H         1 <0>         0.0600 
     48 H15        30.9246   -5.5193   18.2307 H         1 <0>         0.0600 
     49 H16        33.0203   -6.9854   19.0360 H         1 <0>         0.0600 
     50 H17        34.4957   -6.8523   18.1162 H         1 <0>         0.0600 
     51 H18        32.8286   -3.1237   18.0275 H         1 <0>         0.0600 
     52 H19        31.3283   -3.1827   18.9268 H         1 <0>         0.0600 
     53 H20        34.7862   -4.4858   18.8207 H         1 <0>         0.0600 
     54 H21        34.6290   -5.5352   20.2126 H         1 <0>         0.0600 
     55 H22        34.2124   -3.5076   21.1905 H         1 <0>         0.0600 
     56 H23        33.1962   -2.3429   20.3782 H         1 <0>         0.0600 
     57 H24        31.2528   -3.7223   21.6554 H         1 <0>         0.0300 
     58 H25        32.5716   -4.1580   22.7368 H         1 <0>         0.0300 
     59 H26        31.9125   -2.4069   28.6950 H         1 <0>         0.0300 
     60 H27        30.7312   -0.4575   29.7798 H         1 <0>         0.0600 
     61 H28        32.2619   -5.0171   20.2027 H         1 <0>         0.2900 
     62 H29        36.6003    1.8818   28.0839 H         1 <0>         0.4350 
     63 H30        24.4898   -1.8653   26.0508 H         1 <0>         0.4350 
@<TRIPOS>BOND
     1    1    5 ar   
     2    1   20 ar   
     3    1   34 1    
     4    2    6 ar   
     5    2   20 ar   
     6    2   35 1    
     7    3    7 ar   
     8    3   19 ar   
     9    3   36 1    
    10    4    8 ar   
    11    4   19 ar   
    12    4   37 1    
    13    5   21 ar   
    14    5   38 1    
    15    6   21 ar   
    16    6   39 1    
    17    7   22 ar   
    18    7   40 1    
    19    8   22 ar   
    20    8   41 1    
    21    9   10 ar   
    22    9   23 ar   
    23    9   42 1    
    24   10   24 ar   
    25   10   43 1    
    26   11   23 ar   
    27   11   25 ar   
    28   11   44 1    
    29   12   13 1    
    30   12   14 1    
    31   12   45 1    
    32   12   46 1    
    33   13   15 1    
    34   13   47 1    
    35   13   48 1    
    36   14   16 1    
    37   14   49 1    
    38   14   50 1    
    39   15   28 1    
    40   15   51 1    
    41   15   52 1    
    42   16   28 1    
    43   16   53 1    
    44   16   54 1    
    45   17   18 1    
    46   17   28 1    
    47   17   55 1    
    48   17   56 1    
    49   18   32 1    
    50   18   57 1    
    51   18   58 1    
    52   19   26 1    
    53   20   27 1    
    54   21   29 1    
    55   22   32 1    
    56   23   30 1    
    57   24   25 ar   
    58   24   31 1    
    59   25   33 1    
    60   26   27 1    
    61   26   31 1    
    62   26   59 1    
    63   27   33 1    
    64   27   60 1    
    65   28   61 1    
    66   29   62 1    
    67   30   63 1    
@<TRIPOS>SUBSTRUCTURE
     1 <0>         1 GROUP             0       ****    0 ROOT    
@<TRIPOS>MOLECULE
E4D_600_1SJ0
63   67    1
SMALL
USER_CHARGES


@<TRIPOS>ATOM
      1 C1         33.0929    0.5056   29.5754 C.ar      1 <0>        -0.1150 
      2 C2         32.5312    0.8611   27.2319 C.ar      1 <0>        -0.1150 
      3 C3         30.5696   -1.0762   25.8691 C.ar      1 <0>        -0.1150 
      4 C4         32.2126   -2.8316   26.2408 C.ar      1 <0>        -0.1150 
      5 C5         34.3152    1.1780   29.3849 C.ar      1 <0>        -0.1150 
      6 C6         33.7522    1.5361   27.0412 C.ar      1 <0>        -0.1150 
      7 C7         30.8311   -1.1199   24.4865 C.ar      1 <0>        -0.1150 
      8 C8         32.4720   -2.8772   24.8578 C.ar      1 <0>        -0.1150 
      9 C9         26.3474   -2.8471   27.4923 C.ar      1 <0>        -0.1150 
     10 C10        27.6190   -3.1785   27.9989 C.ar      1 <0>        -0.1150 
     11 C11        27.0808   -0.5474   27.1672 C.ar      1 <0>        -0.1150 
     12 C12        32.8551   -5.7087   17.2353 C.3       1 <0>        -0.1200 
     13 C13        31.7046   -4.8136   17.7135 C.3       1 <0>        -0.1200 
     14 C14        33.6394   -6.2257   18.4483 C.3       1 <0>        -0.1200 
     15 C15        32.2210   -3.7056   18.6483 C.3       1 <0>         0.1500 
     16 C16        34.1135   -5.0899   19.3961 C.3       1 <0>         0.1500 
     17 C17        33.2341   -3.3325   20.8889 C.3       1 <0>        -0.0744 
     18 C18        32.2658   -3.4329   22.0775 C.3       1 <0>         0.3644 
     19 C19        31.2566   -1.9328   26.7554 C.ar      1 <0>        -0.0418 
     20 C20        32.1915    0.3388   28.5007 C.ar      1 <0>        -0.1150 
     21 C21        34.6462    1.6934   28.1176 C.ar      1 <0>         0.1500 
     22 C22        31.7893   -2.0255   23.9659 C.ar      1 <0>         0.0850 
     23 C23        26.0786   -1.5313   27.0724 C.ar      1 <0>         0.1500 
     24 C24        28.6378   -2.2076   28.0862 C.ar      1 <0>         0.0850 
     25 C25        28.3524   -0.8765   27.6765 C.ar      1 <0>         0.1525 
     26 C26        31.0108   -1.8641   28.2558 C.3       1 <0>         0.2118 
     27 C27        30.8880   -0.4143   28.7249 C.3       1 <0>         0.2225 
     28 N1         32.9186   -4.3108   19.8156 N.4       1 <0>        -0.1000 
     29 O1         35.8320    2.3426   27.9363 O.3       1 <0>        -0.5850 
     30 O2         24.8480   -1.2072   26.5813 O.3       1 <0>        -0.5850 
     31 O3         29.8512   -2.6206   28.5966 O.3       1 <0>        -0.2850 
     32 O4         32.1102   -2.1330   22.6299 O.3       1 <0>        -0.2850 
     33 S1         29.5640    0.3986   27.8076 S.3       1 <0>        -0.3200 
     34 H1         32.8547    0.1116   30.5524 H         1 <0>         0.1150 
     35 H2         31.8602    0.7474   26.3944 H         1 <0>         0.1150 
     36 H3         29.8463   -0.3691   26.2491 H         1 <0>         0.1150 
     37 H4         32.7547   -3.4865   26.9076 H         1 <0>         0.1150 
     38 H5         34.9980    1.2982   30.2133 H         1 <0>         0.1150 
     39 H6         33.9974    1.9298   26.0657 H         1 <0>         0.1150 
     40 H7         30.2845   -0.4403   23.8508 H         1 <0>         0.1150 
     41 H8         33.2089   -3.5707   24.4799 H         1 <0>         0.1150 
     42 H9         25.5791   -3.6033   27.4262 H         1 <0>         0.1150 
     43 H10        27.8167   -4.1912   28.3179 H         1 <0>         0.1150 
     44 H11        26.8688    0.4642   26.8538 H         1 <0>         0.1150 
     45 H12        32.4529   -6.5505   16.6716 H         1 <0>         0.0600 
     46 H13        33.5124   -5.1626   16.5587 H         1 <0>         0.0600 
     47 H14        31.1995   -4.3690   16.8560 H         1 <0>         0.0600 
     48 H15        30.9561   -5.4143   18.2302 H         1 <0>         0.0600 
     49 H16        33.0267   -6.9255   19.0166 H         1 <0>         0.0600 
     50 H17        34.5122   -6.7866   18.1140 H         1 <0>         0.0600 
     51 H18        32.8899   -3.0373   18.1060 H         1 <0>         0.0600 
     52 H19        31.3806   -3.1013   18.9897 H         1 <0>         0.0600 
     53 H20        34.8238   -4.4426   18.8818 H         1 <0>         0.0600 
     54 H21        34.6412   -5.5253   20.2447 H         1 <0>         0.0600 
     55 H22        34.2420   -3.5138   21.2655 H         1 <0>         0.0600 
     56 H23        33.2371   -2.3207   20.4807 H         1 <0>         0.0600 
     57 H24        31.3022   -3.8032   21.7236 H         1 <0>         0.0300 
     58 H25        32.6333   -4.1342   22.8268 H         1 <0>         0.0300 
     59 H26        31.8720   -2.3310   28.7337 H         1 <0>         0.0300 
     60 H27        30.6717   -0.3790   29.7926 H         1 <0>         0.0600 
     61 H28        32.2805   -4.9788   20.2265 H         1 <0>         0.2900 
     62 H29        36.5837    1.7767   28.0240 H         1 <0>         0.4350 
     63 H30        24.4458   -1.9021   26.0831 H         1 <0>         0.4350 
@<TRIPOS>BOND
     1    1    5 ar   
     2    1   20 ar   
     3    1   34 1    
     4    2    6 ar   
     5    2   20 ar   
     6    2   35 1    
     7    3    7 ar   
     8    3   19 ar   
     9    3   36 1    
    10    4    8 ar   
    11    4   19 ar   
    12    4   37 1    
    13    5   21 ar   
    14    5   38 1    
    15    6   21 ar   
    16    6   39 1    
    17    7   22 ar   
    18    7   40 1    
    19    8   22 ar   
    20    8   41 1    
    21    9   10 ar   
    22    9   23 ar   
    23    9   42 1    
    24   10   24 ar   
    25   10   43 1    
    26   11   23 ar   
    27   11   25 ar   
    28   11   44 1    
    29   12   13 1    
    30   12   14 1    
    31   12   45 1    
    32   12   46 1    
    33   13   15 1    
    34   13   47 1    
    35   13   48 1    
    36   14   16 1    
    37   14   49 1    
    38   14   50 1    
    39   15   28 1    
    40   15   51 1    
    41   15   52 1    
    42   16   28 1    
    43   16   53 1    
    44   16   54 1    
    45   17   18 1    
    46   17   28 1    
    47   17   55 1    
    48   17   56 1    
    49   18   32 1    
    50   18   57 1    
    51   18   58 1    
    52   19   26 1    
    53   20   27 1    
    54   21   29 1    
    55   22   32 1    
    56   23   30 1    
    57   24   25 ar   
    58   24   31 1    
    59   25   33 1    
    60   26   27 1    
    61   26   31 1    
    62   26   59 1    
    63   27   33 1    
    64   27   60 1    
    65   28   61 1    
    66   29   62 1    
    67   30   63 1    
@<TRIPOS>SUBSTRUCTURE
     1 <0>         1 GROUP             0       ****    0 ROOT    
@<TRIPOS>MOLECULE
E4D_600_1SJ0
63   67    1
SMALL
USER_CHARGES


@<TRIPOS>ATOM
      1 C1         32.3460    1.4273   27.4542 C.ar      1 <0>        -0.1150 
      2 C2         33.2835    0.3620   29.4519 C.ar      1 <0>        -0.1150 
      3 C3         31.0603   -1.0800   25.7058 C.ar      1 <0>        -0.1150 
      4 C4         32.4181   -2.9289   26.4987 C.ar      1 <0>        -0.1150 
      5 C5         33.5766    2.0482   27.2107 C.ar      1 <0>        -0.1150 
      6 C6         34.5176    0.9707   29.1998 C.ar      1 <0>        -0.1150 
      7 C7         31.4764   -1.3423   24.3857 C.ar      1 <0>        -0.1150 
      8 C8         32.8181   -3.2087   25.1775 C.ar      1 <0>        -0.1150 
      9 C9         26.6170   -2.8180   27.2806 C.ar      1 <0>        -0.1150 
     10 C10        27.8725   -3.1026   27.8269 C.ar      1 <0>        -0.1150 
     11 C11        27.1042   -0.4266   27.3351 C.ar      1 <0>        -0.1150 
     12 C12        32.7410   -4.0177   16.8867 C.3       1 <0>        -0.1200 
     13 C13        31.3719   -4.5317   17.3441 C.3       1 <0>        -0.1200 
     14 C14        33.7645   -4.1975   18.0124 C.3       1 <0>        -0.1200 
     15 C15        30.9324   -3.8300   18.6408 C.3       1 <0>         0.1500 
     16 C16        33.2816   -3.5115   19.3007 C.3       1 <0>         0.1500 
     17 C17        31.4706   -3.4956   21.0216 C.3       1 <0>        -0.0744 
     18 C18        32.3662   -3.8589   22.2272 C.3       1 <0>         0.3644 
     19 C19        31.5358   -1.8630   26.7841 C.ar      1 <0>        -0.0418 
     20 C20        32.2019    0.5773   28.5724 C.ar      1 <0>        -0.1150 
     21 C21        34.6485    1.8075   28.0814 C.ar      1 <0>         0.1500 
     22 C22        32.3431   -2.4175   24.1130 C.ar      1 <0>         0.0850 
     23 C23        26.2345   -1.4859   27.0332 C.ar      1 <0>         0.1500 
     24 C24        28.7658   -2.0537   28.0873 C.ar      1 <0>         0.0850 
     25 C25        28.3757   -0.7105   27.8556 C.ar      1 <0>         0.1525 
     26 C26        31.0958   -1.6466   28.2440 C.3       1 <0>         0.2118 
     27 C27        30.9477   -0.2211   28.8066 C.3       1 <0>         0.2225 
     28 N1         31.9427   -4.0178   19.7137 N.4       1 <0>        -0.1000 
     29 O1         35.8356    2.3816   27.8289 O.3       1 <0>        -0.5850 
     30 O2         25.0143   -1.2179   26.5024 O.3       1 <0>        -0.5850 
     31 O3         29.9753   -2.4181   28.6007 O.3       1 <0>        -0.2850 
     32 O4         32.7644   -2.6313   22.8254 O.3       1 <0>        -0.2850 
     33 S1         29.4530    0.6276   28.2291 S.3       1 <0>        -0.3200 
     34 H1         31.5385    1.5834   26.7558 H         1 <0>         0.1150 
     35 H2         33.1861   -0.3049   30.2969 H         1 <0>         0.1150 
     36 H3         30.3739   -0.2658   25.8648 H         1 <0>         0.1150 
     37 H4         32.7921   -3.5491   27.2997 H         1 <0>         0.1150 
     38 H5         33.7044    2.6890   26.3501 H         1 <0>         0.1150 
     39 H6         35.3597    0.7867   29.8511 H         1 <0>         0.1150 
     40 H7         31.1194   -0.7194   23.5790 H         1 <0>         0.1150 
     41 H8         33.5072   -4.0176   24.9872 H         1 <0>         0.1150 
     42 H9         25.9418   -3.6304   27.0570 H         1 <0>         0.1150 
     43 H10        28.1637   -4.1261   28.0150 H         1 <0>         0.1150 
     44 H11        26.8019    0.5947   27.1539 H         1 <0>         0.1150 
     45 H12        33.0647   -4.5442   15.9881 H         1 <0>         0.0600 
     46 H13        32.6695   -2.9604   16.6292 H         1 <0>         0.0600 
     47 H14        30.6367   -4.3717   16.5568 H         1 <0>         0.0600 
     48 H15        31.4177   -5.6094   17.5092 H         1 <0>         0.0600 
     49 H16        33.9231   -5.2618   18.2000 H         1 <0>         0.0600 
     50 H17        34.7289   -3.7895   17.7079 H         1 <0>         0.0600 
     51 H18        30.7756   -2.7640   18.4634 H         1 <0>         0.0600 
     52 H19        29.9742   -4.2423   18.9613 H         1 <0>         0.0600 
     53 H20        33.2261   -2.4315   19.1525 H         1 <0>         0.0600 
     54 H21        34.0289   -3.6770   20.0744 H         1 <0>         0.0600 
     55 H22        31.3706   -2.4179   20.9376 H         1 <0>         0.0600 
     56 H23        30.4679   -3.8807   21.2141 H         1 <0>         0.0600 
     57 H24        31.8355   -4.5123   22.9193 H         1 <0>         0.0300 
     58 H25        33.2595   -4.4128   21.9427 H         1 <0>         0.0300 
     59 H26        31.9038   -2.0814   28.8339 H         1 <0>         0.0300 
     60 H27        30.8172   -0.3074   29.8855 H         1 <0>         0.0600 
     61 H28        31.9716   -5.0355   19.8336 H         1 <0>         0.2900 
     62 H29        36.5547    1.9834   28.3094 H         1 <0>         0.4350 
     63 H30        24.6333   -1.9948   26.0880 H         1 <0>         0.4350 
@<TRIPOS>BOND
     1    1    5 ar   
     2    1   20 ar   
     3    1   34 1    
     4    2    6 ar   
     5    2   20 ar   
     6    2   35 1    
     7    3    7 ar   
     8    3   19 ar   
     9    3   36 1    
    10    4    8 ar   
    11    4   19 ar   
    12    4   37 1    
    13    5   21 ar   
    14    5   38 1    
    15    6   21 ar   
    16    6   39 1    
    17    7   22 ar   
    18    7   40 1    
    19    8   22 ar   
    20    8   41 1    
    21    9   10 ar   
    22    9   23 ar   
    23    9   42 1    
    24   10   24 ar   
    25   10   43 1    
    26   11   23 ar   
    27   11   25 ar   
    28   11   44 1    
    29   12   13 1    
    30   12   14 1    
    31   12   45 1    
    32   12   46 1    
    33   13   15 1    
    34   13   47 1    
    35   13   48 1    
    36   14   16 1    
    37   14   49 1    
    38   14   50 1    
    39   15   28 1    
    40   15   51 1    
    41   15   52 1    
    42   16   28 1    
    43   16   53 1    
    44   16   54 1    
    45   17   18 1    
    46   17   28 1    
    47   17   55 1    
    48   17   56 1    
    49   18   32 1    
    50   18   57 1    
    51   18   58 1    
    52   19   26 1    
    53   20   27 1    
    54   21   29 1    
    55   22   32 1    
    56   23   30 1    
    57   24   25 ar   
    58   24   31 1    
    59   25   33 1    
    60   26   27 1    
    61   26   31 1    
    62   26   59 1    
    63   27   33 1    
    64   27   60 1    
    65   28   61 1    
    66   29   62 1    
    67   30   63 1    
@<TRIPOS>SUBSTRUCTURE
     1 <0>         1 GROUP             0       ****    0 ROOT    
