@<TRIPOS>MOLECULE
OHT_101_2FSZ
61   63    1
SMALL
USER_CHARGES


@<TRIPOS>ATOM
      1 C1         89.8556   18.4622   -4.8941 C.3       1 <0>        -0.1800 
      2 C2         99.6936   23.6779   -1.3402 C.3       1 <0>         0.0900 
      3 C3        102.0833   23.1668   -1.4603 C.3       1 <0>         0.0900 
      4 C4         93.7208   16.8005   -2.1138 C.ar      1 <0>        -0.1150 
      5 C5         92.8971   17.8918   -1.7982 C.ar      1 <0>        -0.1150 
      6 C6         94.1102   16.6038   -3.4491 C.ar      1 <0>        -0.1150 
      7 C7         92.4849   18.7922   -2.7833 C.ar      1 <0>        -0.1150 
      8 C8         93.6372   17.4689   -4.4617 C.ar      1 <0>        -0.1150 
      9 C9         92.6885   22.7908   -6.9767 C.ar      1 <0>        -0.1150 
     10 C10        91.5353   22.6112   -4.8426 C.ar      1 <0>        -0.1150 
     11 C11        94.5197   21.6434   -3.6155 C.ar      1 <0>        -0.1150 
     12 C12        95.6142   20.1555   -5.1850 C.ar      1 <0>        -0.1150 
     13 C13        92.0503   24.0225   -7.2120 C.ar      1 <0>        -0.1150 
     14 C14        90.8337   23.7964   -5.1208 C.ar      1 <0>        -0.1150 
     15 C15        95.7426   21.7836   -2.9348 C.ar      1 <0>        -0.1150 
     16 C16        96.8315   20.2919   -4.4851 C.ar      1 <0>        -0.1150 
     17 C17        90.7000   19.7373   -4.9325 C.3       1 <0>        -0.1200 
     18 C18       100.4632   21.5171   -2.2989 C.3       1 <0>        -0.0744 
     19 C19        99.3172   21.2387   -3.2893 C.3       1 <0>         0.3644 
     20 C20        92.8069   18.5654   -4.1325 C.ar      1 <0>        -0.1150 
     21 C21        92.4296   22.0623   -5.7921 C.ar      1 <0>        -0.1150 
     22 C22        94.4456   20.8405   -4.7719 C.ar      1 <0>        -0.1150 
     23 C23        91.1209   24.5264   -6.2838 C.ar      1 <0>         0.1500 
     24 C24        96.9146   21.1458   -3.3632 C.ar      1 <0>         0.0850 
     25 C25        92.2207   19.4820   -5.2010 C.3       1 <0>         0.0550 
     26 C26        93.1357   20.7149   -5.5658 C.3       1 <0>         0.1700 
     27 N1        100.7546   22.9598   -2.0790 N.4       1 <0>        -0.1000 
     28 O1         90.5309   25.7390   -6.4792 O.3       1 <0>        -0.5850 
     29 O2         98.0622   21.4002   -2.6405 O.3       1 <0>        -0.2850 
     30 H1         88.7989   18.6620   -5.0629 H         1 <0>         0.0600 
     31 H2         90.1944   17.7960   -5.6780 H         1 <0>         0.0600 
     32 H3         89.9493   17.9352   -3.9449 H         1 <0>         0.0600 
     33 H4         99.4533   23.1773   -0.4017 H         1 <0>         0.0600 
     34 H5        100.0313   24.6878   -1.1032 H         1 <0>         0.0600 
     35 H6         98.7846   23.7591   -1.9371 H         1 <0>         0.0600 
     36 H7        102.1219   22.7413   -0.4544 H         1 <0>         0.0600 
     37 H8        102.8681   22.7033   -2.0615 H         1 <0>         0.0600 
     38 H9        102.3168   24.2304   -1.3995 H         1 <0>         0.0600 
     39 H10        94.0458   16.1215   -1.3372 H         1 <0>         0.1150 
     40 H11        92.5446   18.0626   -0.8103 H         1 <0>         0.1150 
     41 H12        94.7484   15.7704   -3.6788 H         1 <0>         0.1150 
     42 H13        91.8840   19.6329   -2.4796 H         1 <0>         0.1150 
     43 H14        93.9129   17.2825   -5.4872 H         1 <0>         0.1150 
     44 H15        93.3903   22.4218   -7.7103 H         1 <0>         0.1150 
     45 H16        91.3652   22.1308   -3.8930 H         1 <0>         0.1150 
     46 H17        93.6517   22.1689   -3.2488 H         1 <0>         0.1150 
     47 H18        95.6051   19.5202   -6.0531 H         1 <0>         0.1150 
     48 H19        92.2843   24.5935   -8.1002 H         1 <0>         0.1150 
     49 H20        90.1206   24.1769   -4.4024 H         1 <0>         0.1150 
     50 H21        95.8089   22.4114   -2.0805 H         1 <0>         0.1150 
     51 H22        97.6938   19.7411   -4.8251 H         1 <0>         0.1150 
     52 H23        90.5282   20.2509   -3.9915 H         1 <0>         0.0600 
     53 H24        90.2797   20.4003   -5.6796 H         1 <0>         0.0600 
     54 H25       100.2799   21.0127   -1.3476 H         1 <0>         0.0600 
     55 H26       101.3609   21.0607   -2.7202 H         1 <0>         0.0600 
     56 H27        99.4159   20.2093   -3.6323 H         1 <0>         0.0300 
     57 H28        99.3801   21.8943   -4.1584 H         1 <0>         0.0300 
     58 H29        92.2232   18.8755   -6.1084 H         1 <0>         0.0600 
     59 H30        93.4854   20.4681   -6.5714 H         1 <0>         0.0600 
     60 H31       100.8378   23.4097   -3.0026 H         1 <0>         0.2900 
     61 H32        89.9610   26.0329   -5.7717 H         1 <0>         0.4350 
@<TRIPOS>BOND
     1    1   17 1    
     2    1   30 1    
     3    1   31 1    
     4    1   32 1    
     5    2   27 1    
     6    2   33 1    
     7    2   34 1    
     8    2   35 1    
     9    3   27 1    
    10    3   36 1    
    11    3   37 1    
    12    3   38 1    
    13    4    5 ar   
    14    4    6 ar   
    15    4   39 1    
    16    5    7 ar   
    17    5   40 1    
    18    6    8 ar   
    19    6   41 1    
    20    7   20 ar   
    21    7   42 1    
    22    8   20 ar   
    23    8   43 1    
    24    9   13 ar   
    25    9   21 ar   
    26    9   44 1    
    27   10   14 ar   
    28   10   21 ar   
    29   10   45 1    
    30   11   15 ar   
    31   11   22 ar   
    32   11   46 1    
    33   12   16 ar   
    34   12   22 ar   
    35   12   47 1    
    36   13   23 ar   
    37   13   48 1    
    38   14   23 ar   
    39   14   49 1    
    40   15   24 ar   
    41   15   50 1    
    42   16   24 ar   
    43   16   51 1    
    44   17   25 1    
    45   17   52 1    
    46   17   53 1    
    47   18   19 1    
    48   18   27 1    
    49   18   54 1    
    50   18   55 1    
    51   19   29 1    
    52   19   56 1    
    53   19   57 1    
    54   20   25 1    
    55   21   26 1    
    56   22   26 1    
    57   23   28 1    
    58   24   29 1    
    59   25   26 1    
    60   25   58 1    
    61   26   59 1    
    62   27   60 1    
    63   28   61 1    
@<TRIPOS>SUBSTRUCTURE
     1 <0>         1 GROUP             0       ****    0 ROOT    
@<TRIPOS>MOLECULE
OHT_101_2FSZ
61   63    1
SMALL
USER_CHARGES


@<TRIPOS>ATOM
      1 C1         89.9935   17.9563   -4.6563 C.3       1 <0>        -0.1800 
      2 C2         99.4848   23.5923   -1.3524 C.3       1 <0>         0.0900 
      3 C3        101.9089   23.2630   -1.3902 C.3       1 <0>         0.0900 
      4 C4         93.7279   16.6772   -1.7752 C.ar      1 <0>        -0.1150 
      5 C5         93.7881   16.1921   -3.0922 C.ar      1 <0>        -0.1150 
      6 C6         93.2236   17.9662   -1.5286 C.ar      1 <0>        -0.1150 
      7 C7         93.3339   16.9923   -4.1586 C.ar      1 <0>        -0.1150 
      8 C8         92.7654   18.7655   -2.5877 C.ar      1 <0>        -0.1150 
      9 C9         92.7022   22.4352   -6.8832 C.ar      1 <0>        -0.1150 
     10 C10        91.4981   22.2529   -4.7810 C.ar      1 <0>        -0.1150 
     11 C11        94.5063   21.3727   -3.5883 C.ar      1 <0>        -0.1150 
     12 C12        95.6269   19.8877   -5.1416 C.ar      1 <0>        -0.1150 
     13 C13        92.0811   23.6748   -7.1317 C.ar      1 <0>        -0.1150 
     14 C14        90.8303   23.4580   -5.0573 C.ar      1 <0>        -0.1150 
     15 C15        95.7285   21.5721   -2.9334 C.ar      1 <0>        -0.1150 
     16 C16        96.8557   20.1164   -4.4901 C.ar      1 <0>        -0.1150 
     17 C17        90.7189   19.2920   -4.8488 C.3       1 <0>        -0.1200 
     18 C18       100.4552   21.5453   -2.3728 C.3       1 <0>        -0.0744 
     19 C19        99.3108   21.2104   -3.3500 C.3       1 <0>         0.3644 
     20 C20        92.8204   18.2828   -3.9115 C.ar      1 <0>        -0.1150 
     21 C21        92.4038   21.6977   -5.7139 C.ar      1 <0>        -0.1150 
     22 C22        94.4420   20.5377   -4.7176 C.ar      1 <0>        -0.1150 
     23 C23        91.1318   24.1830   -6.2266 C.ar      1 <0>         0.1500 
     24 C24        96.9215   20.9939   -3.3852 C.ar      1 <0>         0.0850 
     25 C25        92.2460   19.1159   -5.0514 C.3       1 <0>         0.0550 
     26 C26        93.1190   20.3605   -5.4691 C.3       1 <0>         0.1700 
     27 N1        100.6273   22.9959   -2.0794 N.4       1 <0>        -0.1000 
     28 O1         90.5301   25.3835   -6.4791 O.3       1 <0>        -0.5850 
     29 O2         98.0633   21.3224   -2.6880 O.3       1 <0>        -0.2850 
     30 H1         88.9260   18.0391   -4.8603 H         1 <0>         0.0600 
     31 H2         90.4172   17.1760   -5.2790 H         1 <0>         0.0600 
     32 H3         90.1293   17.6062   -3.6374 H         1 <0>         0.0600 
     33 H4         99.2256   23.0022   -0.4731 H         1 <0>         0.0600 
     34 H5         99.7312   24.5960   -1.0143 H         1 <0>         0.0600 
     35 H6         98.6066   23.6701   -1.9925 H         1 <0>         0.0600 
     36 H7        101.9420   22.7786   -0.4136 H         1 <0>         0.0600 
     37 H8        102.7474   22.8990   -1.9858 H         1 <0>         0.0600 
     38 H9        102.0561   24.3339   -1.2500 H         1 <0>         0.0600 
     39 H10        94.0728   16.0669   -0.9531 H         1 <0>         0.1150 
     40 H11        94.1822   15.2051   -3.2783 H         1 <0>         0.1150 
     41 H12        93.1802   18.3388   -0.5161 H         1 <0>         0.1150 
     42 H13        93.3709   16.6022   -5.1650 H         1 <0>         0.1150 
     43 H14        92.3679   19.7485   -2.3801 H         1 <0>         0.1150 
     44 H15        93.4254   22.0627   -7.5949 H         1 <0>         0.1150 
     45 H16        91.3097   21.7696   -3.8370 H         1 <0>         0.1150 
     46 H17        93.6250   21.8652   -3.2075 H         1 <0>         0.1150 
     47 H18        95.6248   19.2097   -5.9788 H         1 <0>         0.1150 
     48 H19        92.3383   24.2397   -8.0170 H         1 <0>         0.1150 
     49 H20        90.1196   23.8426   -4.3413 H         1 <0>         0.1150 
     50 H21        95.7584   22.1921   -2.0730 H         1 <0>         0.1150 
     51 H22        97.7266   19.6024   -4.8616 H         1 <0>         0.1150 
     52 H23        90.5001   19.8789   -3.9608 H         1 <0>         0.0600 
     53 H24        90.2776   19.8271   -5.6823 H         1 <0>         0.0600 
     54 H25       100.3368   20.9827   -1.4454 H         1 <0>         0.0600 
     55 H26       101.3808   21.1889   -2.8274 H         1 <0>         0.0600 
     56 H27        99.4552   20.1819   -3.6799 H         1 <0>         0.0300 
     57 H28        99.3290   21.8590   -4.2275 H         1 <0>         0.0300 
     58 H29        92.3077   18.4622   -5.9240 H         1 <0>         0.0600 
     59 H30        93.4446   20.1041   -6.4747 H         1 <0>         0.0600 
     60 H31       100.7234   23.4972   -2.9765 H         1 <0>         0.2900 
     61 H32        89.9714   25.6988   -5.7767 H         1 <0>         0.4350 
@<TRIPOS>BOND
     1    1   17 1    
     2    1   30 1    
     3    1   31 1    
     4    1   32 1    
     5    2   27 1    
     6    2   33 1    
     7    2   34 1    
     8    2   35 1    
     9    3   27 1    
    10    3   36 1    
    11    3   37 1    
    12    3   38 1    
    13    4    5 ar   
    14    4    6 ar   
    15    4   39 1    
    16    5    7 ar   
    17    5   40 1    
    18    6    8 ar   
    19    6   41 1    
    20    7   20 ar   
    21    7   42 1    
    22    8   20 ar   
    23    8   43 1    
    24    9   13 ar   
    25    9   21 ar   
    26    9   44 1    
    27   10   14 ar   
    28   10   21 ar   
    29   10   45 1    
    30   11   15 ar   
    31   11   22 ar   
    32   11   46 1    
    33   12   16 ar   
    34   12   22 ar   
    35   12   47 1    
    36   13   23 ar   
    37   13   48 1    
    38   14   23 ar   
    39   14   49 1    
    40   15   24 ar   
    41   15   50 1    
    42   16   24 ar   
    43   16   51 1    
    44   17   25 1    
    45   17   52 1    
    46   17   53 1    
    47   18   19 1    
    48   18   27 1    
    49   18   54 1    
    50   18   55 1    
    51   19   29 1    
    52   19   56 1    
    53   19   57 1    
    54   20   25 1    
    55   21   26 1    
    56   22   26 1    
    57   23   28 1    
    58   24   29 1    
    59   25   26 1    
    60   25   58 1    
    61   26   59 1    
    62   27   60 1    
    63   28   61 1    
@<TRIPOS>SUBSTRUCTURE
     1 <0>         1 GROUP             0       ****    0 ROOT    
@<TRIPOS>MOLECULE
OHT_101_2FSZ
61   63    1
SMALL
USER_CHARGES


@<TRIPOS>ATOM
      1 C1         89.8868   18.3273   -4.3679 C.3       1 <0>        -0.1800 
      2 C2        100.3050   24.1917   -0.6350 C.3       1 <0>         0.0900 
      3 C3        102.3160   23.0510   -1.4415 C.3       1 <0>         0.0900 
      4 C4         93.8435   16.6437   -2.0222 C.ar      1 <0>        -0.1150 
      5 C5         93.6734   16.1960   -3.3437 C.ar      1 <0>        -0.1150 
      6 C6         93.5356   17.9754   -1.6841 C.ar      1 <0>        -0.1150 
      7 C7         93.1863   17.0759   -4.3279 C.ar      1 <0>        -0.1150 
      8 C8         93.0378   18.8515   -2.6638 C.ar      1 <0>        -0.1150 
      9 C9         92.6221   22.5826   -6.9570 C.ar      1 <0>        -0.1150 
     10 C10        91.5287   22.4770   -4.7928 C.ar      1 <0>        -0.1150 
     11 C11        95.5349   19.8722   -5.2295 C.ar      1 <0>        -0.1150 
     12 C12        94.6508   21.6401   -3.8138 C.ar      1 <0>        -0.1150 
     13 C13        92.0099   23.8263   -7.2029 C.ar      1 <0>        -0.1150 
     14 C14        90.8445   23.6685   -5.0764 C.ar      1 <0>        -0.1150 
     15 C15        96.7744   19.9832   -4.5708 C.ar      1 <0>        -0.1150 
     16 C16        95.9167   21.8016   -3.2206 C.ar      1 <0>        -0.1150 
     17 C17        90.7244   19.5847   -4.6091 C.3       1 <0>        -0.1200 
     18 C18       100.1187   22.0621   -1.9232 C.3       1 <0>        -0.0744 
     19 C19        98.7005   22.2785   -2.4917 C.3       1 <0>         0.3644 
     20 C20        92.8577   18.4069   -3.9919 C.ar      1 <0>        -0.1150 
     21 C21        92.3770   21.8812   -5.7551 C.ar      1 <0>        -0.1150 
     22 C22        94.4469   20.6866   -4.8375 C.ar      1 <0>        -0.1150 
     23 C23        91.1116   24.3665   -6.2646 C.ar      1 <0>         0.1500 
     24 C24        96.9969   20.9675   -3.5904 C.ar      1 <0>         0.0850 
     25 C25        92.1944   19.3157   -5.0266 C.3       1 <0>         0.0550 
     26 C26        93.0784   20.5324   -5.5177 C.3       1 <0>         0.1700 
     27 N1        100.8817   23.3162   -1.6798 N.4       1 <0>        -0.1000 
     28 O1         90.5384   25.5843   -6.4802 O.3       1 <0>        -0.5850 
     29 O2         98.2612   21.0379   -3.0400 O.3       1 <0>        -0.2850 
     30 H1         88.9459   18.6054   -3.9106 H         1 <0>         0.0600 
     31 H2         89.6677   17.7990   -5.2888 H         1 <0>         0.0600 
     32 H3         90.3668   17.6394   -3.6769 H         1 <0>         0.0600 
     33 H4        100.2391   23.6770    0.3254 H         1 <0>         0.0600 
     34 H5        100.9199   25.0818   -0.5073 H         1 <0>         0.0600 
     35 H6         99.3122   24.5337   -0.9083 H         1 <0>         0.0600 
     36 H7        102.4623   22.4818   -0.5238 H         1 <0>         0.0600 
     37 H8        102.7454   22.4889   -2.2688 H         1 <0>         0.0600 
     38 H9        102.8735   23.9838   -1.3610 H         1 <0>         0.0600 
     39 H10        94.2047   15.9658   -1.2634 H         1 <0>         0.1150 
     40 H11        93.9073   15.1840   -3.6348 H         1 <0>         0.1150 
     41 H12        93.6558   18.3256   -0.6671 H         1 <0>         0.1150 
     42 H13        93.0409   16.7129   -5.3352 H         1 <0>         0.1150 
     43 H14        92.7748   19.8639   -2.3927 H         1 <0>         0.1150 
     44 H15        93.3005   22.1785   -7.6953 H         1 <0>         0.1150 
     45 H16        91.3883   22.0360   -3.8209 H         1 <0>         0.1150 
     46 H17        95.4410   19.1309   -6.0094 H         1 <0>         0.1150 
     47 H18        93.8476   22.2819   -3.4870 H         1 <0>         0.1150 
     48 H19        92.2394   24.3751   -8.1049 H         1 <0>         0.1150 
     49 H20        90.1678   24.0805   -4.3428 H         1 <0>         0.1150 
     50 H21        97.5763   19.3212   -4.8520 H         1 <0>         0.1150 
     51 H22        96.0322   22.5753   -2.4832 H         1 <0>         0.1150 
     52 H23        90.7034   20.1221   -3.6631 H         1 <0>         0.0600 
     53 H24        90.2111   20.1966   -5.3505 H         1 <0>         0.0600 
     54 H25       100.0723   21.4663   -1.0117 H         1 <0>         0.0600 
     55 H26       100.6776   21.4695   -2.6479 H         1 <0>         0.0600 
     56 H27        98.7083   23.0382   -3.2777 H         1 <0>         0.0300 
     57 H28        98.0409   22.6162   -1.6899 H         1 <0>         0.0300 
     58 H29        92.0858   18.6972   -5.9220 H         1 <0>         0.0600 
     59 H30        93.3425   20.2354   -6.5357 H         1 <0>         0.0600 
     60 H31       100.8814   23.8263   -2.5724 H         1 <0>         0.2900 
     61 H32        89.9810   25.9023   -5.7754 H         1 <0>         0.4350 
@<TRIPOS>BOND
     1    1   17 1    
     2    1   30 1    
     3    1   31 1    
     4    1   32 1    
     5    2   27 1    
     6    2   33 1    
     7    2   34 1    
     8    2   35 1    
     9    3   27 1    
    10    3   36 1    
    11    3   37 1    
    12    3   38 1    
    13    4    5 ar   
    14    4    6 ar   
    15    4   39 1    
    16    5    7 ar   
    17    5   40 1    
    18    6    8 ar   
    19    6   41 1    
    20    7   20 ar   
    21    7   42 1    
    22    8   20 ar   
    23    8   43 1    
    24    9   13 ar   
    25    9   21 ar   
    26    9   44 1    
    27   10   14 ar   
    28   10   21 ar   
    29   10   45 1    
    30   11   15 ar   
    31   11   22 ar   
    32   11   46 1    
    33   12   16 ar   
    34   12   22 ar   
    35   12   47 1    
    36   13   23 ar   
    37   13   48 1    
    38   14   23 ar   
    39   14   49 1    
    40   15   24 ar   
    41   15   50 1    
    42   16   24 ar   
    43   16   51 1    
    44   17   25 1    
    45   17   52 1    
    46   17   53 1    
    47   18   19 1    
    48   18   27 1    
    49   18   54 1    
    50   18   55 1    
    51   19   29 1    
    52   19   56 1    
    53   19   57 1    
    54   20   25 1    
    55   21   26 1    
    56   22   26 1    
    57   23   28 1    
    58   24   29 1    
    59   25   26 1    
    60   25   58 1    
    61   26   59 1    
    62   27   60 1    
    63   28   61 1    
@<TRIPOS>SUBSTRUCTURE
     1 <0>         1 GROUP             0       ****    0 ROOT    
@<TRIPOS>MOLECULE
OHT_101_2FSZ
61   63    1
SMALL
USER_CHARGES


@<TRIPOS>ATOM
      1 C1         89.9905   18.1394   -4.6865 C.3       1 <0>        -0.1800 
      2 C2        101.6336   23.4784   -1.2881 C.3       1 <0>         0.0900 
      3 C3        102.9625   22.1387   -2.8648 C.3       1 <0>         0.0900 
      4 C4         93.5110   16.5581   -1.7506 C.ar      1 <0>        -0.1150 
      5 C5         93.1101   17.8806   -1.4903 C.ar      1 <0>        -0.1150 
      6 C6         93.5990   16.1071   -3.0783 C.ar      1 <0>        -0.1150 
      7 C7         92.7661   18.7444   -2.5397 C.ar      1 <0>        -0.1150 
      8 C8         93.2595   16.9702   -4.1372 C.ar      1 <0>        -0.1150 
      9 C9         92.8253   22.4539   -6.7863 C.ar      1 <0>        -0.1150 
     10 C10        91.6857   22.3269   -4.6391 C.ar      1 <0>        -0.1150 
     11 C11        94.9377   21.5217   -3.6456 C.ar      1 <0>        -0.1150 
     12 C12        95.6140   19.5438   -4.8874 C.ar      1 <0>        -0.1150 
     13 C13        92.1446   23.6520   -7.0769 C.ar      1 <0>        -0.1150 
     14 C14        90.9383   23.4714   -4.9673 C.ar      1 <0>        -0.1150 
     15 C15        96.2314   21.6006   -3.0753 C.ar      1 <0>        -0.1150 
     16 C16        96.8935   19.6182   -4.3127 C.ar      1 <0>        -0.1150 
     17 C17        90.8101   19.4291   -4.8365 C.3       1 <0>        -0.1200 
     18 C18       100.6267   21.4895   -2.3551 C.3       1 <0>        -0.0744 
     19 C19        99.2175   21.8800   -2.8399 C.3       1 <0>         0.3644 
     20 C20        92.8278   18.2875   -3.8687 C.ar      1 <0>        -0.1150 
     21 C21        92.5843   21.7674   -5.5726 C.ar      1 <0>        -0.1150 
     22 C22        94.6231   20.5030   -4.5790 C.ar      1 <0>        -0.1150 
     23 C23        91.1879   24.1554   -6.1757 C.ar      1 <0>         0.1500 
     24 C24        97.2262   20.6617   -3.4298 C.ar      1 <0>         0.0850 
     25 C25        92.3385   19.1887   -4.9914 C.3       1 <0>         0.0550 
     26 C26        93.2728   20.4233   -5.3119 C.3       1 <0>         0.1700 
     27 N1        101.6110   22.5941   -2.4762 N.4       1 <0>        -0.1000 
     28 O1         90.5304   25.3121   -6.4778 O.3       1 <0>        -0.5850 
     29 O2         98.5005   20.6578   -2.9124 O.3       1 <0>        -0.2850 
     30 H1         88.9455   18.2874   -4.9684 H         1 <0>         0.0600 
     31 H2         90.4077   17.3282   -5.2757 H         1 <0>         0.0600 
     32 H3         90.0157   17.7943   -3.6551 H         1 <0>         0.0600 
     33 H4        101.9982   22.9477   -0.4080 H         1 <0>         0.0600 
     34 H5        102.2789   24.3378   -1.4682 H         1 <0>         0.0600 
     35 H6        100.6348   23.8590   -1.0708 H         1 <0>         0.0600 
     36 H7        103.3819   21.4629   -2.1191 H         1 <0>         0.0600 
     37 H8        102.9371   21.6254   -3.8244 H         1 <0>         0.0600 
     38 H9        103.6368   22.9881   -2.9779 H         1 <0>         0.0600 
     39 H10        93.7637   15.9005   -0.9319 H         1 <0>         0.1150 
     40 H11        93.0510   18.2383   -0.4786 H         1 <0>         0.1150 
     41 H12        93.9153   15.0931   -3.2792 H         1 <0>         0.1150 
     42 H13        92.4426   19.7521   -2.3218 H         1 <0>         0.1150 
     43 H14        93.3160   16.6007   -5.1482 H         1 <0>         0.1150 
     44 H15        93.5332   22.0696   -7.5064 H         1 <0>         0.1150 
     45 H16        91.5416   21.8682   -3.6739 H         1 <0>         0.1150 
     46 H17        94.1972   22.2571   -3.3676 H         1 <0>         0.1150 
     47 H18        95.3971   18.7398   -5.5754 H         1 <0>         0.1150 
     48 H19        92.3535   24.1833   -7.9956 H         1 <0>         0.1150 
     49 H20        90.2201   23.8591   -4.2614 H         1 <0>         0.1150 
     50 H21        96.4494   22.3644   -2.3434 H         1 <0>         0.1150 
     51 H22        97.6338   18.8707   -4.5625 H         1 <0>         0.1150 
     52 H23        90.5932   20.0176   -3.9478 H         1 <0>         0.0600 
     53 H24        90.4306   19.9969   -5.6805 H         1 <0>         0.0600 
     54 H25       100.5868   21.1277   -1.3263 H         1 <0>         0.0600 
     55 H26       100.9686   20.6391   -2.9417 H         1 <0>         0.0600 
     56 H27        99.2870   22.3364   -3.8316 H         1 <0>         0.0300 
     57 H28        98.7468   22.5903   -2.1581 H         1 <0>         0.0300 
     58 H29        92.4092   18.5683   -5.8856 H         1 <0>         0.0600 
     59 H30        93.6195   20.1893   -6.3168 H         1 <0>         0.0600 
     60 H31       101.3314   23.2123   -3.2526 H         1 <0>         0.2900 
     61 H32        89.9807   25.6462   -5.7773 H         1 <0>         0.4350 
@<TRIPOS>BOND
     1    1   17 1    
     2    1   30 1    
     3    1   31 1    
     4    1   32 1    
     5    2   27 1    
     6    2   33 1    
     7    2   34 1    
     8    2   35 1    
     9    3   27 1    
    10    3   36 1    
    11    3   37 1    
    12    3   38 1    
    13    4    5 ar   
    14    4    6 ar   
    15    4   39 1    
    16    5    7 ar   
    17    5   40 1    
    18    6    8 ar   
    19    6   41 1    
    20    7   20 ar   
    21    7   42 1    
    22    8   20 ar   
    23    8   43 1    
    24    9   13 ar   
    25    9   21 ar   
    26    9   44 1    
    27   10   14 ar   
    28   10   21 ar   
    29   10   45 1    
    30   11   15 ar   
    31   11   22 ar   
    32   11   46 1    
    33   12   16 ar   
    34   12   22 ar   
    35   12   47 1    
    36   13   23 ar   
    37   13   48 1    
    38   14   23 ar   
    39   14   49 1    
    40   15   24 ar   
    41   15   50 1    
    42   16   24 ar   
    43   16   51 1    
    44   17   25 1    
    45   17   52 1    
    46   17   53 1    
    47   18   19 1    
    48   18   27 1    
    49   18   54 1    
    50   18   55 1    
    51   19   29 1    
    52   19   56 1    
    53   19   57 1    
    54   20   25 1    
    55   21   26 1    
    56   22   26 1    
    57   23   28 1    
    58   24   29 1    
    59   25   26 1    
    60   25   58 1    
    61   26   59 1    
    62   27   60 1    
    63   28   61 1    
@<TRIPOS>SUBSTRUCTURE
     1 <0>         1 GROUP             0       ****    0 ROOT    
@<TRIPOS>MOLECULE
OHT_101_2FSZ
61   63    1
SMALL
USER_CHARGES


@<TRIPOS>ATOM
      1 C1         89.9305   18.4469   -5.0286 C.3       1 <0>        -0.1800 
      2 C2        100.7792   24.0906   -1.1938 C.3       1 <0>         0.0900 
      3 C3        102.6185   22.5802   -1.7987 C.3       1 <0>         0.0900 
      4 C4         93.8557   16.8632   -2.0365 C.ar      1 <0>        -0.1150 
      5 C5         94.1289   16.6014   -3.3881 C.ar      1 <0>        -0.1150 
      6 C6         93.1196   18.0070   -1.6794 C.ar      1 <0>        -0.1150 
      7 C7         93.6331   17.4578   -4.3889 C.ar      1 <0>        -0.1150 
      8 C8         92.6338   18.8723   -2.6773 C.ar      1 <0>        -0.1150 
      9 C9         91.5472   22.6011   -4.8393 C.ar      1 <0>        -0.1150 
     10 C10        92.7225   22.7919   -6.9567 C.ar      1 <0>        -0.1150 
     11 C11        94.4741   21.5935   -3.5276 C.ar      1 <0>        -0.1150 
     12 C12        95.6817   20.2973   -5.1851 C.ar      1 <0>        -0.1150 
     13 C13        90.8399   23.7807   -5.1224 C.ar      1 <0>        -0.1150 
     14 C14        92.0731   24.0193   -7.2005 C.ar      1 <0>        -0.1150 
     15 C15        95.6677   21.7363   -2.8084 C.ar      1 <0>        -0.1150 
     16 C16        96.8811   20.4685   -4.4664 C.ar      1 <0>        -0.1150 
     17 C17        90.7636   19.7166   -4.9169 C.3       1 <0>        -0.1200 
     18 C18       100.2811   21.8502   -2.1164 C.3       1 <0>        -0.0744 
     19 C19        99.0930   22.0812   -3.0717 C.3       1 <0>         0.3644 
     20 C20        92.8690   18.5929   -4.0438 C.ar      1 <0>        -0.1150 
     21 C21        92.4576   22.0596   -5.7765 C.ar      1 <0>        -0.1150 
     22 C22        94.4704   20.8801   -4.7384 C.ar      1 <0>        -0.1150 
     23 C23        91.1304   24.5154   -6.2810 C.ar      1 <0>         0.1500 
     24 C24        96.8828   21.2237   -3.2794 C.ar      1 <0>         0.0850 
     25 C25        92.2811   19.4827   -5.1427 C.3       1 <0>         0.0550 
     26 C26        93.1741   20.7215   -5.5338 C.3       1 <0>         0.1700 
     27 N1        101.2269   22.9925   -2.0794 N.4       1 <0>        -0.1000 
     28 O1         90.5292   25.7237   -6.4794 O.3       1 <0>        -0.5850 
     29 O2         97.9951   21.3950   -2.4967 O.3       1 <0>        -0.2850 
     30 H1         88.9292   18.6128   -4.6447 H         1 <0>         0.0600 
     31 H2         89.8466   18.1950   -6.0794 H         1 <0>         0.0600 
     32 H3         90.3593   17.6041   -4.4859 H         1 <0>         0.0600 
     33 H4        100.7918   23.7843   -0.1472 H         1 <0>         0.0600 
     34 H5        101.4296   24.9587   -1.3062 H         1 <0>         0.0600 
     35 H6         99.7667   24.4069   -1.4416 H         1 <0>         0.0600 
     36 H7        102.7029   22.1236   -0.8118 H         1 <0>         0.0600 
     37 H8        102.9636   21.8621   -2.5436 H         1 <0>         0.0600 
     38 H9        103.2886   23.4396   -1.8405 H         1 <0>         0.0600 
     39 H10        94.2265   16.1961   -1.2725 H         1 <0>         0.1150 
     40 H11        94.7211   15.7423   -3.6619 H         1 <0>         0.1150 
     41 H12        92.9297   18.2214   -0.6387 H         1 <0>         0.1150 
     42 H13        93.8433   17.2355   -5.4232 H         1 <0>         0.1150 
     43 H14        92.0778   19.7486   -2.3807 H         1 <0>         0.1150 
     44 H15        91.3670   22.1116   -3.8960 H         1 <0>         0.1150 
     45 H16        93.4409   22.4278   -7.6770 H         1 <0>         0.1150 
     46 H17        93.5637   22.0057   -3.1209 H         1 <0>         0.1150 
     47 H18        95.7165   19.7023   -6.0794 H         1 <0>         0.1150 
     48 H19        90.1293   24.1593   -4.4028 H         1 <0>         0.1150 
     49 H20        92.3151   24.5918   -8.0849 H         1 <0>         0.1150 
     50 H21        95.6368   22.1950   -1.8438 H         1 <0>         0.1150 
     51 H22        97.7823   19.9887   -4.8142 H         1 <0>         0.1150 
     52 H23        90.5693   20.1564   -3.9412 H         1 <0>         0.0600 
     53 H24        90.3627   20.4067   -5.6572 H         1 <0>         0.0600 
     54 H25        99.9285   21.6614   -1.1007 H         1 <0>         0.0600 
     55 H26       100.7909   20.9375   -2.4283 H         1 <0>         0.0600 
     56 H27        99.3292   21.7325   -4.0777 H         1 <0>         0.0300 
     57 H28        98.8329   23.1376   -3.1476 H         1 <0>         0.0300 
     58 H29        92.3024   18.8594   -6.0388 H         1 <0>         0.0600 
     59 H30        93.5378   20.4655   -6.5270 H         1 <0>         0.0600 
     60 H31       101.2536   23.3947   -3.0275 H         1 <0>         0.2900 
     61 H32        89.9520   26.0072   -5.7748 H         1 <0>         0.4350 
@<TRIPOS>BOND
     1    1   17 1    
     2    1   30 1    
     3    1   31 1    
     4    1   32 1    
     5    2   27 1    
     6    2   33 1    
     7    2   34 1    
     8    2   35 1    
     9    3   27 1    
    10    3   36 1    
    11    3   37 1    
    12    3   38 1    
    13    4    5 ar   
    14    4    6 ar   
    15    4   39 1    
    16    5    7 ar   
    17    5   40 1    
    18    6    8 ar   
    19    6   41 1    
    20    7   20 ar   
    21    7   42 1    
    22    8   20 ar   
    23    8   43 1    
    24    9   13 ar   
    25    9   21 ar   
    26    9   44 1    
    27   10   14 ar   
    28   10   21 ar   
    29   10   45 1    
    30   11   15 ar   
    31   11   22 ar   
    32   11   46 1    
    33   12   16 ar   
    34   12   22 ar   
    35   12   47 1    
    36   13   23 ar   
    37   13   48 1    
    38   14   23 ar   
    39   14   49 1    
    40   15   24 ar   
    41   15   50 1    
    42   16   24 ar   
    43   16   51 1    
    44   17   25 1    
    45   17   52 1    
    46   17   53 1    
    47   18   19 1    
    48   18   27 1    
    49   18   54 1    
    50   18   55 1    
    51   19   29 1    
    52   19   56 1    
    53   19   57 1    
    54   20   25 1    
    55   21   26 1    
    56   22   26 1    
    57   23   28 1    
    58   24   29 1    
    59   25   26 1    
    60   25   58 1    
    61   26   59 1    
    62   27   60 1    
    63   28   61 1    
@<TRIPOS>SUBSTRUCTURE
     1 <0>         1 GROUP             0       ****    0 ROOT    
@<TRIPOS>MOLECULE
OHT_101_2FSZ
61   63    1
SMALL
USER_CHARGES


@<TRIPOS>ATOM
      1 C1         89.8629   18.9888   -4.8452 C.3       1 <0>        -0.1800 
      2 C2        101.6849   23.2637   -1.5496 C.3       1 <0>         0.0900 
      3 C3        102.7454   21.3353   -2.6259 C.3       1 <0>         0.0900 
      4 C4         94.4108   16.8057   -2.5102 C.ar      1 <0>        -0.1150 
      5 C5         94.8573   18.1325   -2.6565 C.ar      1 <0>        -0.1150 
      6 C6         93.3005   16.3528   -3.2477 C.ar      1 <0>        -0.1150 
      7 C7         94.1950   19.0057   -3.5407 C.ar      1 <0>        -0.1150 
      8 C8         92.6376   17.2255   -4.1321 C.ar      1 <0>        -0.1150 
      9 C9         91.5914   22.4370   -4.9803 C.ar      1 <0>        -0.1150 
     10 C10        92.7927   22.7981   -7.0690 C.ar      1 <0>        -0.1150 
     11 C11        94.4348   21.5146   -3.6136 C.ar      1 <0>        -0.1150 
     12 C12        95.7857   20.3938   -5.2963 C.ar      1 <0>        -0.1150 
     13 C13        90.9079   23.6544   -5.1633 C.ar      1 <0>        -0.1150 
     14 C14        92.1113   24.0168   -7.2512 C.ar      1 <0>        -0.1150 
     15 C15        95.5800   21.6897   -2.8142 C.ar      1 <0>        -0.1150 
     16 C16        96.9314   20.5685   -4.4964 C.ar      1 <0>        -0.1150 
     17 C17        91.0144   19.9916   -4.6780 C.3       1 <0>        -0.1200 
     18 C18       100.2974   21.3803   -2.3815 C.3       1 <0>        -0.0744 
     19 C19        99.0451   22.1049   -2.8989 C.3       1 <0>         0.3644 
     20 C20        93.0821   18.5573   -4.2869 C.ar      1 <0>        -0.1150 
     21 C21        92.5416   22.0002   -5.9297 C.ar      1 <0>        -0.1150 
     22 C22        94.5280   20.8652   -4.8622 C.ar      1 <0>        -0.1150 
     23 C23        91.1679   24.4458   -6.2979 C.ar      1 <0>         0.1500 
     24 C24        96.8378   21.2192   -3.2409 C.ar      1 <0>         0.0850 
     25 C25        92.3649   19.5009   -5.2525 C.3       1 <0>         0.0550 
     26 C26        93.2760   20.6763   -5.7167 C.3       1 <0>         0.1700 
     27 N1        101.5350   22.1845   -2.5541 N.4       1 <0>        -0.1000 
     28 O1         90.5050   25.6254   -6.4703 O.3       1 <0>        -0.5850 
     29 O2         97.9035   21.4280   -2.3923 O.3       1 <0>        -0.2850 
     30 H1         88.9281   19.4091   -4.4737 H         1 <0>         0.0600 
     31 H2         89.7162   18.7289   -5.8937 H         1 <0>         0.0600 
     32 H3         90.0476   18.0667   -4.2934 H         1 <0>         0.0600 
     33 H4        101.7396   22.8552   -0.5395 H         1 <0>         0.0600 
     34 H5        102.5964   23.8343   -1.7324 H         1 <0>         0.0600 
     35 H6        100.8544   23.9678   -1.5896 H         1 <0>         0.0600 
     36 H7        102.8984   20.7911   -1.6927 H         1 <0>         0.0600 
     37 H8        102.6637   20.6091   -3.4356 H         1 <0>         0.0600 
     38 H9        103.6328   21.9399   -2.8177 H         1 <0>         0.0600 
     39 H10        94.9194   16.1358   -1.8325 H         1 <0>         0.1150 
     40 H11        95.7089   18.4808   -2.0905 H         1 <0>         0.1150 
     41 H12        92.9573   15.3349   -3.1354 H         1 <0>         0.1150 
     42 H13        94.5475   20.0211   -3.6446 H         1 <0>         0.1150 
     43 H14        91.7880   16.8644   -4.6928 H         1 <0>         0.1150 
     44 H15        91.3821   21.8419   -4.1036 H         1 <0>         0.1150 
     45 H16        93.5164   22.4855   -7.8063 H         1 <0>         0.1150 
     46 H17        93.4822   21.8815   -3.2597 H         1 <0>         0.1150 
     47 H18        95.8816   19.8924   -6.2475 H         1 <0>         0.1150 
     48 H19        90.1850   23.9809   -4.4298 H         1 <0>         0.1150 
     49 H20        92.3176   24.6192   -8.1237 H         1 <0>         0.1150 
     50 H21        95.4887   22.1896   -1.8610 H         1 <0>         0.1150 
     51 H22        97.8697   20.1920   -4.8738 H         1 <0>         0.1150 
     52 H23        91.1269   20.2273   -3.6193 H         1 <0>         0.0600 
     53 H24        90.7248   20.9239   -5.1630 H         1 <0>         0.0600 
     54 H25       100.1748   21.1089   -1.3318 H         1 <0>         0.0600 
     55 H26       100.3939   20.4430   -2.9319 H         1 <0>         0.0600 
     56 H27        99.0324   22.1346   -3.9888 H         1 <0>         0.0300 
     57 H28        99.0529   23.1357   -2.5410 H         1 <0>         0.0300 
     58 H29        92.1283   18.9049   -6.1339 H         1 <0>         0.0600 
     59 H30        93.6303   20.3846   -6.7064 H         1 <0>         0.0600 
     60 H31       101.4553   22.6333   -3.4569 H         1 <0>         0.2900 
     61 H32        89.9588   25.8584   -5.7355 H         1 <0>         0.4350 
@<TRIPOS>BOND
     1    1   17 1    
     2    1   30 1    
     3    1   31 1    
     4    1   32 1    
     5    2   27 1    
     6    2   33 1    
     7    2   34 1    
     8    2   35 1    
     9    3   27 1    
    10    3   36 1    
    11    3   37 1    
    12    3   38 1    
    13    4    5 ar   
    14    4    6 ar   
    15    4   39 1    
    16    5    7 ar   
    17    5   40 1    
    18    6    8 ar   
    19    6   41 1    
    20    7   20 ar   
    21    7   42 1    
    22    8   20 ar   
    23    8   43 1    
    24    9   13 ar   
    25    9   21 ar   
    26    9   44 1    
    27   10   14 ar   
    28   10   21 ar   
    29   10   45 1    
    30   11   15 ar   
    31   11   22 ar   
    32   11   46 1    
    33   12   16 ar   
    34   12   22 ar   
    35   12   47 1    
    36   13   23 ar   
    37   13   48 1    
    38   14   23 ar   
    39   14   49 1    
    40   15   24 ar   
    41   15   50 1    
    42   16   24 ar   
    43   16   51 1    
    44   17   25 1    
    45   17   52 1    
    46   17   53 1    
    47   18   19 1    
    48   18   27 1    
    49   18   54 1    
    50   18   55 1    
    51   19   29 1    
    52   19   56 1    
    53   19   57 1    
    54   20   25 1    
    55   21   26 1    
    56   22   26 1    
    57   23   28 1    
    58   24   29 1    
    59   25   26 1    
    60   25   58 1    
    61   26   59 1    
    62   27   60 1    
    63   28   61 1    
@<TRIPOS>SUBSTRUCTURE
     1 <0>         1 GROUP             0       ****    0 ROOT    
@<TRIPOS>MOLECULE
OHT_101_2FSZ
61   63    1
SMALL
USER_CHARGES


@<TRIPOS>ATOM
      1 C1         89.6849   18.2138   -4.8792 C.3       1 <0>        -0.1800 
      2 C2        101.0528   20.2864   -1.2422 C.3       1 <0>         0.0900 
      3 C3        101.0185   22.5590   -0.3184 C.3       1 <0>         0.0900 
      4 C4         93.7274   16.5279   -2.1098 C.ar      1 <0>        -0.1150 
      5 C5         94.3037   16.5942   -3.3854 C.ar      1 <0>        -0.1150 
      6 C6         92.6343   17.3558   -1.8204 C.ar      1 <0>        -0.1150 
      7 C7         93.7633   17.4494   -4.3689 C.ar      1 <0>        -0.1150 
      8 C8         92.1358   18.2612   -2.7636 C.ar      1 <0>        -0.1150 
      9 C9         92.6125   22.5406   -6.9269 C.ar      1 <0>        -0.1150 
     10 C10        91.4113   22.3841   -4.8215 C.ar      1 <0>        -0.1150 
     11 C11        94.3082   21.3791   -3.5364 C.ar      1 <0>        -0.1150 
     12 C12        95.5080   20.0674   -5.1813 C.ar      1 <0>        -0.1150 
     13 C13        92.0198   23.7954   -7.1705 C.ar      1 <0>        -0.1150 
     14 C14        90.7714   23.6044   -5.0929 C.ar      1 <0>        -0.1150 
     15 C15        95.5233   21.6217   -2.8793 C.ar      1 <0>        -0.1150 
     16 C16        96.7171   20.2868   -4.4960 C.ar      1 <0>        -0.1150 
     17 C17        90.5584   19.4759   -4.9191 C.3       1 <0>        -0.1200 
     18 C18       100.1682   22.1745   -2.5887 C.3       1 <0>        -0.0744 
     19 C19        99.1079   21.4232   -3.4027 C.3       1 <0>         0.3644 
     20 C20        92.6777   18.3014   -4.0650 C.ar      1 <0>        -0.1150 
     21 C21        92.3013   21.8087   -5.7584 C.ar      1 <0>        -0.1150 
     22 C22        94.2897   20.6247   -4.7230 C.ar      1 <0>        -0.1150 
     23 C23        91.0914   24.3248   -6.2557 C.ar      1 <0>         0.1500 
     24 C24        96.7415   21.1194   -3.3587 C.ar      1 <0>         0.0850 
     25 C25        92.0802   19.2189   -5.1372 C.3       1 <0>         0.0550 
     26 C26        92.9877   20.4555   -5.5137 C.3       1 <0>         0.1700 
     27 N1        100.3621   21.5990   -1.2349 N.4       1 <0>        -0.1000 
     28 O1         90.5294   25.5475   -6.4794 O.3       1 <0>        -0.5850 
     29 O2         97.8845   21.4807   -2.6848 O.3       1 <0>        -0.2850 
     30 H1         89.0969   18.1997   -3.9672 H         1 <0>         0.0600 
     31 H2         88.9802   18.2013   -5.7086 H         1 <0>         0.0600 
     32 H3         90.2675   17.2930   -4.8993 H         1 <0>         0.0600 
     33 H4        102.0419   20.3650   -1.6949 H         1 <0>         0.0600 
     34 H5        101.1726   19.9118   -0.2246 H         1 <0>         0.0600 
     35 H6        100.4870   19.5349   -1.7917 H         1 <0>         0.0600 
     36 H7        102.0183   22.8145   -0.6698 H         1 <0>         0.0600 
     37 H8        100.4404   23.4801   -0.2430 H         1 <0>         0.0600 
     38 H9        101.1065   22.1428    0.6859 H         1 <0>         0.0600 
     39 H10        94.1153   15.8503   -1.3631 H         1 <0>         0.1150 
     40 H11        95.1506   15.9663   -3.6200 H         1 <0>         0.1150 
     41 H12        92.1487   17.3014   -0.8781 H         1 <0>         0.1150 
     42 H13        94.2049   17.4614   -5.3534 H         1 <0>         0.1150 
     43 H14        91.3093   18.8867   -2.4676 H         1 <0>         0.1150 
     44 H15        93.3238   22.1522   -7.6416 H         1 <0>         0.1150 
     45 H16        91.2105   21.9036   -3.8779 H         1 <0>         0.1150 
     46 H17        93.4016   21.7958   -3.1259 H         1 <0>         0.1150 
     47 H18        95.5490   19.4665   -6.0708 H         1 <0>         0.1150 
     48 H19        92.2890   24.3583   -8.0536 H         1 <0>         0.1150 
     49 H20        90.0800   24.0136   -4.3720 H         1 <0>         0.1150 
     50 H21        95.5152   22.1950   -1.9765 H         1 <0>         0.1150 
     51 H22        97.6158   19.8262   -4.8788 H         1 <0>         0.1150 
     52 H23        90.3840   20.0073   -3.9884 H         1 <0>         0.0600 
     53 H24        90.1573   20.1365   -5.6790 H         1 <0>         0.0600 
     54 H25       101.1169   22.1942   -3.1277 H         1 <0>         0.0600 
     55 H26        99.8452   23.2122   -2.4902 H         1 <0>         0.0600 
     56 H27        99.4018   20.3898   -3.5849 H         1 <0>         0.0300 
     57 H28        98.9998   21.9113   -4.3723 H         1 <0>         0.0300 
     58 H29        92.0947   18.5958   -6.0336 H         1 <0>         0.0600 
     59 H30        93.3423   20.1903   -6.5081 H         1 <0>         0.0600 
     60 H31        99.4346   21.4439   -0.8652 H         1 <0>         0.2900 
     61 H32        89.9693   25.8663   -5.7781 H         1 <0>         0.4350 
@<TRIPOS>BOND
     1    1   17 1    
     2    1   30 1    
     3    1   31 1    
     4    1   32 1    
     5    2   27 1    
     6    2   33 1    
     7    2   34 1    
     8    2   35 1    
     9    3   27 1    
    10    3   36 1    
    11    3   37 1    
    12    3   38 1    
    13    4    5 ar   
    14    4    6 ar   
    15    4   39 1    
    16    5    7 ar   
    17    5   40 1    
    18    6    8 ar   
    19    6   41 1    
    20    7   20 ar   
    21    7   42 1    
    22    8   20 ar   
    23    8   43 1    
    24    9   13 ar   
    25    9   21 ar   
    26    9   44 1    
    27   10   14 ar   
    28   10   21 ar   
    29   10   45 1    
    30   11   15 ar   
    31   11   22 ar   
    32   11   46 1    
    33   12   16 ar   
    34   12   22 ar   
    35   12   47 1    
    36   13   23 ar   
    37   13   48 1    
    38   14   23 ar   
    39   14   49 1    
    40   15   24 ar   
    41   15   50 1    
    42   16   24 ar   
    43   16   51 1    
    44   17   25 1    
    45   17   52 1    
    46   17   53 1    
    47   18   19 1    
    48   18   27 1    
    49   18   54 1    
    50   18   55 1    
    51   19   29 1    
    52   19   56 1    
    53   19   57 1    
    54   20   25 1    
    55   21   26 1    
    56   22   26 1    
    57   23   28 1    
    58   24   29 1    
    59   25   26 1    
    60   25   58 1    
    61   26   59 1    
    62   27   60 1    
    63   28   61 1    
@<TRIPOS>SUBSTRUCTURE
     1 <0>         1 GROUP             0       ****    0 ROOT    
@<TRIPOS>MOLECULE
OHT_101_2FSZ
61   63    1
SMALL
USER_CHARGES


@<TRIPOS>ATOM
      1 C1         89.5944   18.3624   -4.4250 C.3       1 <0>        -0.1800 
      2 C2        101.2881   19.8859   -2.0374 C.3       1 <0>         0.0900 
      3 C3        101.2275   21.8180   -0.5294 C.3       1 <0>         0.0900 
      4 C4         93.4959   16.5056   -1.9571 C.ar      1 <0>        -0.1150 
      5 C5         93.3100   16.0614   -3.2786 C.ar      1 <0>        -0.1150 
      6 C6         93.2196   17.8450   -1.6283 C.ar      1 <0>        -0.1150 
      7 C7         92.8742   16.9564   -4.2744 C.ar      1 <0>        -0.1150 
      8 C8         92.7411   18.7291   -2.6102 C.ar      1 <0>        -0.1150 
      9 C9         92.5626   22.5008   -6.8842 C.ar      1 <0>        -0.1150 
     10 C10        91.4102   22.4313   -4.7515 C.ar      1 <0>        -0.1150 
     11 C11        94.3483   21.4388   -3.5580 C.ar      1 <0>        -0.1150 
     12 C12        95.3921   19.8571   -5.0667 C.ar      1 <0>        -0.1150 
     13 C13        91.9938   23.7651   -7.1492 C.ar      1 <0>        -0.1150 
     14 C14        90.7765   23.6471   -5.0497 C.ar      1 <0>        -0.1150 
     15 C15        95.5882   21.6281   -2.9346 C.ar      1 <0>        -0.1150 
     16 C16        96.6469   20.0977   -4.4750 C.ar      1 <0>        -0.1150 
     17 C17        90.5159   19.5683   -4.6175 C.3       1 <0>        -0.1200 
     18 C18       100.2242   22.0033   -2.7659 C.3       1 <0>        -0.0744 
     19 C19        99.0873   21.4522   -3.6360 C.3       1 <0>         0.3644 
     20 C20        92.5773   18.2960   -3.9447 C.ar      1 <0>        -0.1150 
     21 C21        92.2637   21.8035   -5.6894 C.ar      1 <0>        -0.1150 
     22 C22        94.2419   20.5731   -4.6621 C.ar      1 <0>        -0.1150 
     23 C23        91.0841   24.3303   -6.2365 C.ar      1 <0>         0.1500 
     24 C24        96.7566   21.0278   -3.4205 C.ar      1 <0>         0.0850 
     25 C25        91.9804   19.2356   -4.9923 C.3       1 <0>         0.0550 
     26 C26        92.9185   20.4335   -5.4208 C.3       1 <0>         0.1700 
     27 N1        100.5466   21.1026   -1.6324 N.4       1 <0>        -0.1000 
     28 O1         90.5292   25.5513   -6.4795 O.3       1 <0>        -0.5850 
     29 O2         97.9349   21.3856   -2.8141 O.3       1 <0>        -0.2850 
     30 H1         88.9159   18.5956   -3.6102 H         1 <0>         0.0600 
     31 H2         88.9955   18.1606   -5.3068 H         1 <0>         0.0600 
     32 H3         90.1152   17.4473   -4.1515 H         1 <0>         0.0600 
     33 H4        102.2376   20.1436   -2.5102 H         1 <0>         0.0600 
     34 H5        101.5007   19.2594   -1.1699 H         1 <0>         0.0600 
     35 H6        100.7117   19.2781   -2.7347 H         1 <0>         0.0600 
     36 H7        102.1914   22.2132   -0.8547 H         1 <0>         0.0600 
     37 H8        100.6196   22.6518   -0.1777 H         1 <0>         0.0600 
     38 H9        101.3977   21.1529    0.3165 H         1 <0>         0.0600 
     39 H10        93.8359   15.8201   -1.1922 H         1 <0>         0.1150 
     40 H11        93.4816   15.0274   -3.5287 H         1 <0>         0.1150 
     41 H12        93.3559   18.1928   -0.6139 H         1 <0>         0.1150 
     42 H13        92.7279   16.5955   -5.2813 H         1 <0>         0.1150 
     43 H14        92.4974   19.7447   -2.3328 H         1 <0>         0.1150 
     44 H15        93.2503   22.0793   -7.6026 H         1 <0>         0.1150 
     45 H16        91.2262   21.9970   -3.7841 H         1 <0>         0.1150 
     46 H17        93.4895   21.9646   -3.1718 H         1 <0>         0.1150 
     47 H18        95.3346   19.1217   -5.8475 H         1 <0>         0.1150 
     48 H19        92.2561   24.3006   -8.0508 H         1 <0>         0.1150 
     49 H20        90.1054   24.0855   -4.3261 H         1 <0>         0.1150 
     50 H21        95.6494   22.2605   -2.0811 H         1 <0>         0.1150 
     51 H22        97.5061   19.5561   -4.8401 H         1 <0>         0.1150 
     52 H23        90.5095   20.0897   -3.6636 H         1 <0>         0.0600 
     53 H24        90.0566   20.2302   -5.3505 H         1 <0>         0.0600 
     54 H25       101.1197   22.1924   -3.3586 H         1 <0>         0.0600 
     55 H26        99.9118   22.9784   -2.3895 H         1 <0>         0.0600 
     56 H27        99.3285   20.4727   -4.0427 H         1 <0>         0.0300 
     57 H28        98.9181   22.1279   -4.4757 H         1 <0>         0.0300 
     58 H29        91.8778   18.6396   -5.9003 H         1 <0>         0.0600 
     59 H30        93.2578   20.1302   -6.4125 H         1 <0>         0.0600 
     60 H31        99.6574   20.7938   -1.2640 H         1 <0>         0.2900 
     61 H32        89.9724   25.8850   -5.7827 H         1 <0>         0.4350 
@<TRIPOS>BOND
     1    1   17 1    
     2    1   30 1    
     3    1   31 1    
     4    1   32 1    
     5    2   27 1    
     6    2   33 1    
     7    2   34 1    
     8    2   35 1    
     9    3   27 1    
    10    3   36 1    
    11    3   37 1    
    12    3   38 1    
    13    4    5 ar   
    14    4    6 ar   
    15    4   39 1    
    16    5    7 ar   
    17    5   40 1    
    18    6    8 ar   
    19    6   41 1    
    20    7   20 ar   
    21    7   42 1    
    22    8   20 ar   
    23    8   43 1    
    24    9   13 ar   
    25    9   21 ar   
    26    9   44 1    
    27   10   14 ar   
    28   10   21 ar   
    29   10   45 1    
    30   11   15 ar   
    31   11   22 ar   
    32   11   46 1    
    33   12   16 ar   
    34   12   22 ar   
    35   12   47 1    
    36   13   23 ar   
    37   13   48 1    
    38   14   23 ar   
    39   14   49 1    
    40   15   24 ar   
    41   15   50 1    
    42   16   24 ar   
    43   16   51 1    
    44   17   25 1    
    45   17   52 1    
    46   17   53 1    
    47   18   19 1    
    48   18   27 1    
    49   18   54 1    
    50   18   55 1    
    51   19   29 1    
    52   19   56 1    
    53   19   57 1    
    54   20   25 1    
    55   21   26 1    
    56   22   26 1    
    57   23   28 1    
    58   24   29 1    
    59   25   26 1    
    60   25   58 1    
    61   26   59 1    
    62   27   60 1    
    63   28   61 1    
@<TRIPOS>SUBSTRUCTURE
     1 <0>         1 GROUP             0       ****    0 ROOT    
