@<TRIPOS>MOLECULE
fa10-ligand
58   61    1
SMALL
USER_CHARGES


@<TRIPOS>ATOM
      1 C1          5.9525   -7.9247  -14.8993 C.ar      1 <0>        -0.1150 
      2 C2          4.4414   -4.7557  -16.1824 C.ar      1 <0>        -0.1150 
      3 C3          5.2126   -8.8833  -15.6161 C.ar      1 <0>        -0.1150 
      4 C4          5.1361   -3.8066  -15.4045 C.ar      1 <0>        -0.1150 
      5 C5          3.9555   -7.0906  -16.7187 C.ar      1 <0>        -0.1150 
      6 C6          6.3526   -5.5955  -14.2885 C.ar      1 <0>        -0.1150 
      7 C7         -0.6775   -8.7624   -7.7445 C.3       1 <0>        -0.1200 
      8 C8         -1.6598  -10.5425  -11.5433 C.3       1 <0>        -0.1200 
      9 C9          0.8154  -11.0597  -11.2602 C.3       1 <0>        -0.1200 
     10 C10        -0.8468   -9.7577   -6.6046 C.3       1 <0>         0.0320 
     11 C11        -0.0348   -9.4750   -8.9350 C.3       1 <0>        -0.0703 
     12 C12        -1.5565  -11.0785  -12.9822 C.3       1 <0>        -0.0500 
     13 C13         0.8234  -11.5841  -12.7067 C.3       1 <0>        -0.0500 
     14 C14         1.5242   -9.4727  -16.6019 C.3       1 <0>        -0.4339 
     15 C15         4.6955   -6.1315  -16.0008 C.ar      1 <0>         0.0000 
     16 C16         5.6787   -6.5526  -15.0708 C.ar      1 <0>         0.0000 
     17 C17         4.2101   -8.4590  -16.5124 C.ar      1 <0>         0.1380 
     18 C18         6.0679   -4.2266  -14.4369 C.ar      1 <0>         0.1800 
     19 C19        -0.5956  -11.2077  -10.6491 C.3       1 <0>        -0.0103 
     20 C20        -1.3868  -11.4928   -8.3264 C.2       1 <0>         0.8137 
     21 C21         1.4890   -9.9786  -15.1430 C.3       1 <0>         0.3411 
     22 C22         0.0498  -10.1077  -14.5999 C.2       1 <0>         0.5000 
     23 N1         -1.4559  -10.9907   -7.0800 N.am      1 <0>        -0.5181 
     24 N2         -0.1931  -10.8731  -13.5046 N.am      1 <0>        -0.1400 
     25 N3         -0.7046  -10.7519   -9.2481 N.am      1 <0>        -0.2219 
     26 O1          2.2043   -9.0747  -14.3222 O.3       1 <0>        -0.6830 
     27 O2         -1.9463  -12.5562   -8.5874 O.2       1 <0>        -0.6163 
     28 O3         -0.8476   -9.4948  -15.1876 O.2       1 <0>        -0.5000 
     29 O4          3.6945  -10.9996  -17.0046 O.2       1 <0>        -0.5300 
     30 O5          3.1269   -9.2537  -18.7671 O.2       1 <0>        -0.5300 
     31 S1          3.1924   -9.6606  -17.3553 S.o2      1 <0>         0.8624 
     32 Cl1         6.8478   -3.0748  -13.4078 Cl        1 <0>        -0.1800 
     33 H1          6.6977   -8.2484  -14.1866 H         1 <0>         0.1150 
     34 H2          3.7080   -4.4224  -16.9032 H         1 <0>         0.1150 
     35 H3          5.3977   -9.9342  -15.4563 H         1 <0>         0.1150 
     36 H4          4.9290   -2.7537  -15.5431 H         1 <0>         0.1150 
     37 H5          3.1827   -6.7800  -17.4066 H         1 <0>         0.1150 
     38 H6          7.0685   -5.9083  -13.5425 H         1 <0>         0.1150 
     39 H7         -1.6474   -8.3629   -8.0398 H         1 <0>         0.0600 
     40 H8         -0.0722   -7.9131   -7.4269 H         1 <0>         0.0600 
     41 H9         -2.6579  -10.7374  -11.1478 H         1 <0>         0.0600 
     42 H10        -1.5338   -9.4586  -11.5471 H         1 <0>         0.0600 
     43 H11         1.1425  -10.0202  -11.2693 H         1 <0>         0.0600 
     44 H12         1.5415  -11.6102  -10.6614 H         1 <0>         0.0600 
     45 H13        -1.4343   -9.3335   -5.7899 H         1 <0>         0.0600 
     46 H14         0.1328  -10.0138   -6.2047 H         1 <0>         0.0600 
     47 H15         1.0138   -9.6779   -8.7135 H         1 <0>         0.0600 
     48 H16        -0.0531   -8.8001   -9.7905 H         1 <0>         0.0600 
     49 H17        -1.7796  -12.1462  -12.9988 H         1 <0>         0.0600 
     50 H18        -2.3248  -10.6070  -13.5971 H         1 <0>         0.0600 
     51 H19         0.5954  -12.6518  -12.7207 H         1 <0>         0.0600 
     52 H20         1.8388  -11.4930  -13.0854 H         1 <0>         0.0600 
     53 H21         0.8406  -10.0596  -17.2164 H         1 <0>         0.1787 
     54 H22         1.2178   -8.4289  -16.6841 H         1 <0>         0.1787 
     55 H23        -0.7929  -12.2812  -10.6838 H         1 <0>         0.0600 
     56 H24         1.9646  -10.9575  -15.1226 H         1 <0>         0.0600 
     57 H25        -1.9655  -11.5358   -6.3972 H         1 <0>         0.2912 
     58 H26         1.7358   -8.2451  -14.3909 H         1 <0>         0.4180 
@<TRIPOS>BOND
     1    1    3 ar   
     2    1   16 ar   
     3    1   33 1    
     4    2    4 ar   
     5    2   15 ar   
     6    2   34 1    
     7    3   17 ar   
     8    3   35 1    
     9    4   18 ar   
    10    4   36 1    
    11    5   15 ar   
    12    5   17 ar   
    13    5   37 1    
    14    6   16 ar   
    15    6   18 ar   
    16    6   38 1    
    17    7   10 1    
    18    7   11 1    
    19    7   39 1    
    20    7   40 1    
    21    8   12 1    
    22    8   19 1    
    23    8   41 1    
    24    8   42 1    
    25    9   13 1    
    26    9   19 1    
    27    9   43 1    
    28    9   44 1    
    29   10   23 1    
    30   10   45 1    
    31   10   46 1    
    32   11   25 1    
    33   11   47 1    
    34   11   48 1    
    35   12   24 1    
    36   12   49 1    
    37   12   50 1    
    38   13   24 1    
    39   13   51 1    
    40   13   52 1    
    41   14   21 1    
    42   14   31 1    
    43   14   53 1    
    44   14   54 1    
    45   15   16 ar   
    46   17   31 1    
    47   18   32 1    
    48   19   25 1    
    49   19   55 1    
    50   20   23 am   BACKBONE|DICT|INTERRES
    51   20   25 am   BACKBONE|DICT|INTERRES
    52   20   27 2    
    53   21   22 1    
    54   21   26 1    
    55   21   56 1    
    56   22   24 am   BACKBONE|DICT|INTERRES
    57   22   28 2    
    58   23   57 1    
    59   26   58 1    
    60   29   31 2    
    61   30   31 2    
@<TRIPOS>SUBSTRUCTURE
     1 <0>         1 GROUP             0       ****    0 ROOT    
@<TRIPOS>MOLECULE
fa10-ligand
58   61    1
SMALL
USER_CHARGES


@<TRIPOS>ATOM
      1 C1          5.5687   -8.3462  -15.1448 C.ar      1 <0>        -0.1150 
      2 C2          4.2532   -5.1504  -16.5587 C.ar      1 <0>        -0.1150 
      3 C3          4.8065   -9.2904  -15.8638 C.ar      1 <0>        -0.1150 
      4 C4          4.9668   -4.2036  -15.8035 C.ar      1 <0>        -0.1150 
      5 C5          3.6746   -7.4735  -17.0403 C.ar      1 <0>        -0.1150 
      6 C6          6.0871   -6.0111  -14.6060 C.ar      1 <0>        -0.1150 
      7 C7         -0.2054   -9.3347   -8.2046 C.3       1 <0>        -0.1200 
      8 C8         -2.5294  -10.4087  -11.9205 C.3       1 <0>        -0.1200 
      9 C9         -0.4288  -11.8900  -11.7785 C.3       1 <0>        -0.1200 
     10 C10        -0.8427  -10.0520   -7.0213 C.3       1 <0>         0.0320 
     11 C11        -1.0687   -9.5397   -9.4501 C.3       1 <0>        -0.0703 
     12 C12        -1.7174   -9.4160  -12.7709 C.3       1 <0>        -0.0500 
     13 C13         0.3105  -10.7799  -12.5376 C.3       1 <0>        -0.0500 
     14 C14         1.1020   -9.6961  -16.8615 C.3       1 <0>        -0.4339 
     15 C15         4.4360   -6.5287  -16.3265 C.ar      1 <0>         0.0000 
     16 C16         5.3767   -6.9649  -15.3638 C.ar      1 <0>         0.0000 
     17 C17         3.8506   -8.8469  -16.8009 C.ar      1 <0>         0.1380 
     18 C18         5.8688   -4.6337  -14.8094 C.ar      1 <0>         0.1800 
     19 C19        -1.6946  -11.3867  -11.0577 C.3       1 <0>        -0.0103 
     20 C20        -1.5368  -11.8519   -8.6311 C.2       1 <0>         0.8137 
     21 C21         0.9965  -10.1785  -15.3958 C.3       1 <0>         0.3411 
     22 C22        -0.4028   -9.9182  -14.7937 C.2       1 <0>         0.5000 
     23 N1         -1.2451  -11.4006   -7.3973 N.am      1 <0>        -0.5181 
     24 N2         -0.6019  -10.0797  -13.4595 N.am      1 <0>        -0.1400 
     25 N3         -1.4249  -10.9584   -9.6599 N.am      1 <0>        -0.2219 
     26 O1          1.9512   -9.4744  -14.6305 O.3       1 <0>        -0.6830 
     27 O2         -1.8662  -13.0278   -8.7834 O.2       1 <0>        -0.6163 
     28 O3         -1.2842   -9.4757  -15.5368 O.2       1 <0>        -0.5000 
     29 O4          3.1773  -11.3660  -17.2755 O.2       1 <0>        -0.5300 
     30 O5          2.6737   -9.6026  -19.0403 O.2       1 <0>        -0.5300 
     31 S1          2.7530  -10.0020  -17.6265 S.o2      1 <0>         0.8624 
     32 Cl1         6.6638   -3.4745  -13.8045 Cl        1 <0>        -0.1800 
     33 H1          6.2791   -8.6863  -14.4041 H         1 <0>         0.1150 
     34 H2          3.5528   -4.8083  -17.3062 H         1 <0>         0.1150 
     35 H3          4.9289  -10.3446  -15.6664 H         1 <0>         0.1150 
     36 H4          4.8015   -3.1481  -15.9728 H         1 <0>         0.1150 
     37 H5          2.9371   -7.1455  -17.7593 H         1 <0>         0.1150 
     38 H6          6.7634   -6.3328  -13.8297 H         1 <0>         0.1150 
     39 H7         -0.0753   -8.2739   -7.9882 H         1 <0>         0.0600 
     40 H8          0.7924   -9.7415   -8.3830 H         1 <0>         0.0600 
     41 H9         -3.1268  -11.0058  -12.6103 H         1 <0>         0.0600 
     42 H10        -3.2473   -9.8712  -11.3101 H         1 <0>         0.0600 
     43 H11         0.2449  -12.3891  -11.0822 H         1 <0>         0.0600 
     44 H12        -0.7247  -12.6535  -12.5007 H         1 <0>         0.0600 
     45 H13        -1.7171   -9.5068   -6.6662 H         1 <0>         0.0600 
     46 H14        -0.1302  -10.1032   -6.2028 H         1 <0>         0.0600 
     47 H15        -0.5098   -9.1414  -10.2891 H         1 <0>         0.0600 
     48 H16        -1.9887   -8.9584   -9.3666 H         1 <0>         0.0600 
     49 H17        -2.4055   -8.9250  -13.4593 H         1 <0>         0.0600 
     50 H18        -1.3208   -8.6008  -12.1692 H         1 <0>         0.0600 
     51 H19         1.1459  -11.2571  -13.0450 H         1 <0>         0.0600 
     52 H20         0.7541  -10.0635  -11.8483 H         1 <0>         0.0600 
     53 H21         0.3734  -10.2215  -17.4786 H         1 <0>         0.1787 
     54 H22         0.8832   -8.6321  -16.9499 H         1 <0>         0.1787 
     55 H23        -2.3481  -12.2572  -10.9916 H         1 <0>         0.0600 
     56 H24         1.2106  -11.2463  -15.3485 H         1 <0>         0.0600 
     57 H25        -1.3212  -12.0744   -6.6487 H         1 <0>         0.2912 
     58 H26         1.6723   -8.5635  -14.6089 H         1 <0>         0.4180 
@<TRIPOS>BOND
     1    1    3 ar   
     2    1   16 ar   
     3    1   33 1    
     4    2    4 ar   
     5    2   15 ar   
     6    2   34 1    
     7    3   17 ar   
     8    3   35 1    
     9    4   18 ar   
    10    4   36 1    
    11    5   15 ar   
    12    5   17 ar   
    13    5   37 1    
    14    6   16 ar   
    15    6   18 ar   
    16    6   38 1    
    17    7   10 1    
    18    7   11 1    
    19    7   39 1    
    20    7   40 1    
    21    8   12 1    
    22    8   19 1    
    23    8   41 1    
    24    8   42 1    
    25    9   13 1    
    26    9   19 1    
    27    9   43 1    
    28    9   44 1    
    29   10   23 1    
    30   10   45 1    
    31   10   46 1    
    32   11   25 1    
    33   11   47 1    
    34   11   48 1    
    35   12   24 1    
    36   12   49 1    
    37   12   50 1    
    38   13   24 1    
    39   13   51 1    
    40   13   52 1    
    41   14   21 1    
    42   14   31 1    
    43   14   53 1    
    44   14   54 1    
    45   15   16 ar   
    46   17   31 1    
    47   18   32 1    
    48   19   25 1    
    49   19   55 1    
    50   20   23 am   BACKBONE|DICT|INTERRES
    51   20   25 am   BACKBONE|DICT|INTERRES
    52   20   27 2    
    53   21   22 1    
    54   21   26 1    
    55   21   56 1    
    56   22   24 am   BACKBONE|DICT|INTERRES
    57   22   28 2    
    58   23   57 1    
    59   26   58 1    
    60   29   31 2    
    61   30   31 2    
@<TRIPOS>SUBSTRUCTURE
     1 <0>         1 GROUP             0       ****    0 ROOT    
@<TRIPOS>MOLECULE
fa10-ligand
58   61    1
SMALL
USER_CHARGES


@<TRIPOS>ATOM
      1 C1          5.9555   -7.9652  -14.9653 C.ar      1 <0>        -0.1150 
      2 C2          4.3526   -4.8306  -16.2053 C.ar      1 <0>        -0.1150 
      3 C3          5.2138   -8.9377  -15.6632 C.ar      1 <0>        -0.1150 
      4 C4          5.0200   -3.8677  -15.4285 C.ar      1 <0>        -0.1150 
      5 C5          3.9366   -7.1668  -16.7644 C.ar      1 <0>        -0.1150 
      6 C6          6.3525   -5.6222  -14.3784 C.ar      1 <0>        -0.1150 
      7 C7         -0.6697   -8.7522   -7.7919 C.3       1 <0>        -0.1200 
      8 C8         -1.7254  -10.4998  -11.5012 C.3       1 <0>        -0.1200 
      9 C9          0.7001  -11.2592  -11.2499 C.3       1 <0>        -0.1200 
     10 C10        -0.8281   -9.6973   -6.6051 C.3       1 <0>         0.0320 
     11 C11        -0.0351   -9.5252   -8.9493 C.3       1 <0>        -0.0703 
     12 C12        -1.6842  -11.0373  -12.9440 C.3       1 <0>        -0.0500 
     13 C13         0.6272  -11.7818  -12.6968 C.3       1 <0>        -0.0500 
     14 C14         1.5180   -9.5276  -16.5039 C.3       1 <0>        -0.4339 
     15 C15         4.6600   -6.1953  -16.0487 C.ar      1 <0>         0.0000 
     16 C16         5.6710   -6.5957  -15.1379 C.ar      1 <0>         0.0000 
     17 C17         4.1959   -8.5305  -16.5486 C.ar      1 <0>         0.1380 
     18 C18         6.0040   -4.2629  -14.5048 C.ar      1 <0>         0.1800 
     19 C19        -0.7117  -11.2568  -10.6185 C.3       1 <0>        -0.0103 
     20 C20        -1.3923  -11.5044   -8.2497 C.2       1 <0>         0.8137 
     21 C21         1.4422  -10.1849  -15.1038 C.3       1 <0>         0.3411 
     22 C22         0.0007  -10.1807  -14.5451 C.2       1 <0>         0.5000 
     23 N1         -1.4297  -10.9571   -7.0201 N.am      1 <0>        -0.5181 
     24 N2         -0.3135  -10.9542  -13.4728 N.am      1 <0>        -0.1400 
     25 N3         -0.7475  -10.7864   -9.2184 N.am      1 <0>        -0.2219 
     26 O1          2.3117   -9.5243  -14.1951 O.3       1 <0>        -0.6830 
     27 O2         -1.9529  -12.5784   -8.4571 O.2       1 <0>        -0.6163 
     28 O3         -0.8473   -9.4841  -15.1133 O.2       1 <0>        -0.5000 
     29 O4          3.6602  -11.0746  -17.0045 O.2       1 <0>        -0.5300 
     30 O5          2.9855   -9.3410  -18.7475 O.2       1 <0>        -0.5300 
     31 S1          3.1451   -9.7368  -17.3417 S.o2      1 <0>         0.8624 
     32 Cl1         6.7528   -3.0808  -13.4966 Cl        1 <0>        -0.1800 
     33 H1          6.7191   -8.2753  -14.2662 H         1 <0>         0.1150 
     34 H2          3.5894   -4.5165  -16.9021 H         1 <0>         0.1150 
     35 H3          5.4111   -9.9871  -15.4963 H         1 <0>         0.1150 
     36 H4          4.7651   -2.8239  -15.5453 H         1 <0>         0.1150 
     37 H5          3.1531   -6.8684  -17.4446 H         1 <0>         0.1150 
     38 H6          7.0961   -5.9128  -13.6527 H         1 <0>         0.1150 
     39 H7         -1.6448   -8.3687   -8.0960 H         1 <0>         0.0600 
     40 H8         -0.0573   -7.8900   -7.5189 H         1 <0>         0.0600 
     41 H9         -2.7311  -10.6082  -11.0930 H         1 <0>         0.0600 
     42 H10        -1.5084   -9.4312  -11.5074 H         1 <0>         0.0600 
     43 H11         1.1354  -10.2603  -11.2615 H         1 <0>         0.0600 
     44 H12         1.3696  -11.8843  -10.6617 H         1 <0>         0.0600 
     45 H13        -1.4147   -9.2379   -5.8069 H         1 <0>         0.0600 
     46 H14         0.1584   -9.9242   -6.2048 H         1 <0>         0.0600 
     47 H15         1.0036   -9.7606   -8.7048 H         1 <0>         0.0600 
     48 H16        -0.0132   -8.8803   -9.8283 H         1 <0>         0.0600 
     49 H17        -2.0048  -12.0791  -12.9604 H         1 <0>         0.0600 
     50 H18        -2.4131  -10.4965  -13.5499 H         1 <0>         0.0600 
     51 H19         0.2716  -12.8127  -12.7019 H         1 <0>         0.0600 
     52 H20         1.6323  -11.8207  -13.1081 H         1 <0>         0.0600 
     53 H21         0.7779   -9.9819  -17.1621 H         1 <0>         0.1787 
     54 H22         1.2877   -8.4614  -16.4629 H         1 <0>         0.1787 
     55 H23        -1.0176  -12.3037  -10.6437 H         1 <0>         0.0600 
     56 H24         1.7579  -11.2226  -15.2084 H         1 <0>         0.0600 
     57 H25        -1.9097  -11.4888   -6.3040 H         1 <0>         0.2912 
     58 H26         3.2026   -9.6428  -14.4852 H         1 <0>         0.4180 
@<TRIPOS>BOND
     1    1    3 ar   
     2    1   16 ar   
     3    1   33 1    
     4    2    4 ar   
     5    2   15 ar   
     6    2   34 1    
     7    3   17 ar   
     8    3   35 1    
     9    4   18 ar   
    10    4   36 1    
    11    5   15 ar   
    12    5   17 ar   
    13    5   37 1    
    14    6   16 ar   
    15    6   18 ar   
    16    6   38 1    
    17    7   10 1    
    18    7   11 1    
    19    7   39 1    
    20    7   40 1    
    21    8   12 1    
    22    8   19 1    
    23    8   41 1    
    24    8   42 1    
    25    9   13 1    
    26    9   19 1    
    27    9   43 1    
    28    9   44 1    
    29   10   23 1    
    30   10   45 1    
    31   10   46 1    
    32   11   25 1    
    33   11   47 1    
    34   11   48 1    
    35   12   24 1    
    36   12   49 1    
    37   12   50 1    
    38   13   24 1    
    39   13   51 1    
    40   13   52 1    
    41   14   21 1    
    42   14   31 1    
    43   14   53 1    
    44   14   54 1    
    45   15   16 ar   
    46   17   31 1    
    47   18   32 1    
    48   19   25 1    
    49   19   55 1    
    50   20   23 am   BACKBONE|DICT|INTERRES
    51   20   25 am   BACKBONE|DICT|INTERRES
    52   20   27 2    
    53   21   22 1    
    54   21   26 1    
    55   21   56 1    
    56   22   24 am   BACKBONE|DICT|INTERRES
    57   22   28 2    
    58   23   57 1    
    59   26   58 1    
    60   29   31 2    
    61   30   31 2    
@<TRIPOS>SUBSTRUCTURE
     1 <0>         1 GROUP             0       ****    0 ROOT    
@<TRIPOS>MOLECULE
fa10-ligand
58   61    1
SMALL
USER_CHARGES


@<TRIPOS>ATOM
      1 C1          5.8845   -7.9167  -14.9916 C.ar      1 <0>        -0.1150 
      2 C2          4.4374   -4.6934  -16.2038 C.ar      1 <0>        -0.1150 
      3 C3          5.1117   -8.8465  -15.7158 C.ar      1 <0>        -0.1150 
      4 C4          5.1413   -3.7711  -15.4064 C.ar      1 <0>        -0.1150 
      5 C5          3.9146   -7.0045  -16.7847 C.ar      1 <0>        -0.1150 
      6 C6          6.3506   -5.5982  -14.3387 C.ar      1 <0>        -0.1150 
      7 C7         -1.1463  -11.8346   -7.7293 C.3       1 <0>        -0.1200 
      8 C8         -2.1380  -10.2529  -12.2598 C.3       1 <0>        -0.1200 
      9 C9          0.0290  -11.6198  -12.1995 C.3       1 <0>        -0.1200 
     10 C10        -0.8685  -10.4057   -7.2704 C.3       1 <0>         0.0320 
     11 C11        -1.8163  -11.8185   -9.1054 C.3       1 <0>        -0.0703 
     12 C12        -2.2721  -10.6520  -13.7426 C.3       1 <0>        -0.0500 
     13 C13        -0.2093  -11.9368  -13.6834 C.3       1 <0>        -0.0500 
     14 C14         1.3749   -9.2641  -16.9421 C.3       1 <0>        -0.4339 
     15 C15         4.6695   -6.0751  -16.0495 C.ar      1 <0>         0.0000 
     16 C16         5.6492   -6.5317  -15.1325 C.ar      1 <0>         0.0000 
     17 C17         4.1180   -8.3827  -16.6017 C.ar      1 <0>         0.1380 
     18 C18         6.0759   -4.2194  -14.4534 C.ar      1 <0>         0.1800 
     19 C19        -1.3038  -11.3001  -11.4780 C.3       1 <0>        -0.0103 
     20 C20        -0.3940   -9.8406   -9.6696 C.2       1 <0>         0.8137 
     21 C21         1.0625  -10.0320  -15.6403 C.3       1 <0>         0.3411 
     22 C22        -0.4373   -9.9834  -15.2675 C.2       1 <0>         0.5000 
     23 N1         -0.2642   -9.6317   -8.3473 N.am      1 <0>        -0.5181 
     24 N2         -0.9293  -10.8210  -14.3176 N.am      1 <0>        -0.1400 
     25 N3         -1.1085  -10.9375  -10.0551 N.am      1 <0>        -0.2219 
     26 O1          1.8096   -9.4747  -14.5799 O.3       1 <0>        -0.6830 
     27 O2          0.1458   -9.0748  -10.4623 O.2       1 <0>        -0.6163 
     28 O3         -1.1497   -9.1417  -15.8243 O.2       1 <0>        -0.5000 
     29 O4          3.5170  -10.8904  -17.1833 O.2       1 <0>        -0.5300 
     30 O5          3.1521   -9.0868  -18.9388 O.2       1 <0>        -0.5300 
     31 S1          3.1025   -9.5225  -17.5357 S.o2      1 <0>         0.8624 
     32 Cl1         6.8592   -3.0796  -13.4067 Cl        1 <0>        -0.1800 
     33 H1          6.6302   -8.2720  -14.2944 H         1 <0>         0.1150 
     34 H2          3.7038   -4.3370  -16.9138 H         1 <0>         0.1150 
     35 H3          5.2770   -9.9063  -15.5859 H         1 <0>         0.1150 
     36 H4          4.9441   -2.7143  -15.5212 H         1 <0>         0.1150 
     37 H5          3.1545   -6.6746  -17.4763 H         1 <0>         0.1150 
     38 H6          7.0661   -5.9356  -13.6015 H         1 <0>         0.1150 
     39 H7         -0.2052  -12.3817   -7.8043 H         1 <0>         0.0600 
     40 H8         -1.7595  -12.3660   -7.0002 H         1 <0>         0.0600 
     41 H9         -3.1266  -10.1538  -11.8101 H         1 <0>         0.0600 
     42 H10        -1.6804   -9.2650  -12.2078 H         1 <0>         0.0600 
     43 H11         0.7272  -10.7860  -12.1440 H         1 <0>         0.0600 
     44 H12         0.5206  -12.4618  -11.7118 H         1 <0>         0.0600 
     45 H13        -0.2077  -10.4036   -6.4021 H         1 <0>         0.0600 
     46 H14        -1.7961   -9.9140   -6.9705 H         1 <0>         0.0600 
     47 H15        -2.8469  -11.4719   -9.0147 H         1 <0>         0.0600 
     48 H16        -1.8610  -12.8448   -9.4704 H         1 <0>         0.0600 
     49 H17        -2.8280  -11.5866  -13.8346 H         1 <0>         0.0600 
     50 H18        -2.8684   -9.9028  -14.2644 H         1 <0>         0.0600 
     51 H19        -0.8106  -12.8422  -13.7751 H         1 <0>         0.0600 
     52 H20         0.7418  -12.1785  -14.1493 H         1 <0>         0.0600 
     53 H21         0.7243   -9.6263  -17.7358 H         1 <0>         0.1787 
     54 H22         1.1906   -8.1936  -16.8477 H         1 <0>         0.1787 
     55 H23        -1.8897  -12.2204  -11.5238 H         1 <0>         0.0600 
     56 H24         1.3630  -11.0664  -15.7991 H         1 <0>         0.0600 
     57 H25         0.2805   -8.8263   -8.0768 H         1 <0>         0.2912 
     58 H26         1.4946   -8.5811  -14.4737 H         1 <0>         0.4180 
@<TRIPOS>BOND
     1    1    3 ar   
     2    1   16 ar   
     3    1   33 1    
     4    2    4 ar   
     5    2   15 ar   
     6    2   34 1    
     7    3   17 ar   
     8    3   35 1    
     9    4   18 ar   
    10    4   36 1    
    11    5   15 ar   
    12    5   17 ar   
    13    5   37 1    
    14    6   16 ar   
    15    6   18 ar   
    16    6   38 1    
    17    7   10 1    
    18    7   11 1    
    19    7   39 1    
    20    7   40 1    
    21    8   12 1    
    22    8   19 1    
    23    8   41 1    
    24    8   42 1    
    25    9   13 1    
    26    9   19 1    
    27    9   43 1    
    28    9   44 1    
    29   10   23 1    
    30   10   45 1    
    31   10   46 1    
    32   11   25 1    
    33   11   47 1    
    34   11   48 1    
    35   12   24 1    
    36   12   49 1    
    37   12   50 1    
    38   13   24 1    
    39   13   51 1    
    40   13   52 1    
    41   14   21 1    
    42   14   31 1    
    43   14   53 1    
    44   14   54 1    
    45   15   16 ar   
    46   17   31 1    
    47   18   32 1    
    48   19   25 1    
    49   19   55 1    
    50   20   23 am   BACKBONE|DICT|INTERRES
    51   20   25 am   BACKBONE|DICT|INTERRES
    52   20   27 2    
    53   21   22 1    
    54   21   26 1    
    55   21   56 1    
    56   22   24 am   BACKBONE|DICT|INTERRES
    57   22   28 2    
    58   23   57 1    
    59   26   58 1    
    60   29   31 2    
    61   30   31 2    
@<TRIPOS>SUBSTRUCTURE
     1 <0>         1 GROUP             0       ****    0 ROOT    
