@<TRIPOS>MOLECULE
fa7-ligand
70   73    1
SMALL
USER_CHARGES


@<TRIPOS>ATOM
      1 C1         12.9177   43.8931   34.7843 C.3       1 <0>         0.1100 
      2 C2          9.6470   46.0383   26.6836 C.ar      1 <0>        -0.1150 
      3 C3          7.8997   38.0225   38.2727 C.ar      1 <0>        -0.1150 
      4 C4         10.9896   45.6187   26.7404 C.ar      1 <0>        -0.1150 
      5 C5          8.9891   46.4483   27.8585 C.ar      1 <0>        -0.1150 
      6 C6          7.9173   39.4260   38.2206 C.ar      1 <0>        -0.1150 
      7 C7          7.6241   37.2932   37.1038 C.ar      1 <0>        -0.1150 
      8 C8         11.6686   45.5985   27.9739 C.ar      1 <0>        -0.1150 
      9 C9          9.6685   46.4283   29.0920 C.ar      1 <0>        -0.1150 
     10 C10         7.6666   40.0898   37.0041 C.ar      1 <0>        -0.1150 
     11 C11         7.3670   37.9679   35.8947 C.ar      1 <0>        -0.1150 
     12 C12        14.5298   37.6850   30.6135 C.ar      1 <0>        -0.0900 
     13 C13        12.6755   38.0848   29.1009 C.ar      1 <0>        -0.0900 
     14 C14        13.7247   38.0866   31.6954 C.ar      1 <0>        -0.1060 
     15 C15        11.9059   38.5764   30.1664 C.ar      1 <0>        -0.1060 
     16 C16        10.0831   41.9681   31.0750 C.ar      1 <0>        -0.1150 
     17 C17        10.1969   43.3493   30.8418 C.ar      1 <0>        -0.1150 
     18 C18        11.3202   42.2069   33.1368 C.ar      1 <0>        -0.1150 
     19 C19        11.7441   45.9653   30.4841 C.3       1 <0>         0.1818 
     20 C20        11.0063   45.9874   29.1564 C.ar      1 <0>        -0.0418 
     21 C21         7.3955   39.3808   35.8024 C.ar      1 <0>        -0.1150 
     22 C22        14.0190   37.7024   29.2983 C.ar      1 <0>        -0.1190 
     23 C23        12.4416   38.6188   31.4730 C.ar      1 <0>         0.3320 
     24 C24        10.6295   41.3700   32.2306 C.ar      1 <0>        -0.1150 
     25 C25        10.8647   44.1746   31.7688 C.ar      1 <0>         0.0850 
     26 C26        11.4285   43.6044   32.9288 C.ar      1 <0>         0.0850 
     27 C27         7.1566   40.0343   34.4566 C.3       1 <0>         0.1550 
     28 C28        10.4967   39.9018   32.4536 C.3       1 <0>         0.1775 
     29 C29        14.8781   37.4182   28.1413 C.2       1 <0>         0.8270 
     30 C30         6.4251   41.3646   34.7042 C.2       1 <0>         0.7000 
     31 C31         9.5827   39.6867   33.6757 C.2       1 <0>         0.5000 
     32 N1         16.0666   36.8203   28.2835 N.pl3     1 <0>        -0.8850 
     33 N2         14.4668   37.6864   26.8906 N.pl3     1 <0>        -0.8850 
     34 N3         11.7791   39.2134   32.5595 N.pl3     1 <0>        -0.7025 
     35 N4          8.3558   40.2360   33.6252 N.am      1 <0>        -0.5000 
     36 O1          7.0450   42.4349   34.5156 O.co2     1 <0>        -0.8000 
     37 O2          5.2366   41.2863   35.0834 O.co2     1 <0>        -0.8000 
     38 O3          9.9337   38.8866   34.5441 O.2       1 <0>        -0.5000 
     39 O4         12.0664   44.4590   33.8010 O.3       1 <0>        -0.2850 
     40 O5         10.9560   45.5346   31.5888 O.3       1 <0>        -0.2850 
     41 H1         13.3994   44.6896   35.3504 H         1 <0>         0.0300 
     42 H2         12.3487   43.2866   35.4835 H         1 <0>         0.0300 
     43 H3         13.7029   43.2847   34.3325 H         1 <0>         0.0300 
     44 H4          9.1228   46.0441   25.7392 H         1 <0>         0.1150 
     45 H5          8.1078   37.5043   39.1982 H         1 <0>         0.1150 
     46 H6         11.4981   45.3099   25.8390 H         1 <0>         0.1150 
     47 H7          7.9599   46.7750   27.8169 H         1 <0>         0.1150 
     48 H8          8.1347   39.9982   39.1109 H         1 <0>         0.1150 
     49 H9          7.6167   36.2134   37.1337 H         1 <0>         0.1150 
     50 H10        12.7018   45.2858   28.0073 H         1 <0>         0.1150 
     51 H11         9.1581   46.7414   29.9912 H         1 <0>         0.1150 
     52 H12         7.7101   41.1687   37.0044 H         1 <0>         0.1150 
     53 H13         7.1762   37.3803   35.0092 H         1 <0>         0.1150 
     54 H14        15.5531   37.4009   30.8066 H         1 <0>         0.1290 
     55 H15        12.2364   38.0837   28.1190 H         1 <0>         0.1290 
     56 H16        14.1439   38.0996   32.6911 H         1 <0>         0.1410 
     57 H17        10.9207   38.9439   29.9303 H         1 <0>         0.1410 
     58 H18         9.5629   41.3623   30.3480 H         1 <0>         0.1150 
     59 H19         9.7491   43.7664   29.9537 H         1 <0>         0.1150 
     60 H20        11.7569   41.7455   34.0084 H         1 <0>         0.1150 
     61 H21        12.0666   46.9846   30.6947 H         1 <0>         0.0300 
     62 H22        12.6501   45.3602   30.4082 H         1 <0>         0.0300 
     63 H23         6.4801   39.4120   33.8707 H         1 <0>         0.0600 
     64 H24         9.9164   39.4592   31.6483 H         1 <0>         0.0600 
     65 H25        16.5166   36.4683   27.4444 H         1 <0>         0.4455 
     66 H26        16.3141   36.4237   29.1793 H         1 <0>         0.4455 
     67 H27        14.8670   37.1849   26.0850 H         1 <0>         0.4455 
     68 H28        13.5613   38.1116   26.7559 H         1 <0>         0.4455 
     69 H29        12.1019   38.9943   33.4955 H         1 <0>         0.3800 
     70 H30         8.2250   40.9430   32.9153 H         1 <0>         0.3000 
@<TRIPOS>BOND
     1    1   39 1    
     2    1   41 1    
     3    1   42 1    
     4    1   43 1    
     5    2    4 ar   
     6    2    5 ar   
     7    2   44 1    
     8    3    6 ar   
     9    3    7 ar   
    10    3   45 1    
    11    4    8 ar   
    12    4   46 1    
    13    5    9 ar   
    14    5   47 1    
    15    6   10 ar   
    16    6   48 1    
    17    7   11 ar   
    18    7   49 1    
    19    8   20 ar   
    20    8   50 1    
    21    9   20 ar   
    22    9   51 1    
    23   10   21 ar   
    24   10   52 1    
    25   11   21 ar   
    26   11   53 1    
    27   12   14 ar   
    28   12   22 ar   
    29   12   54 1    
    30   13   15 ar   
    31   13   22 ar   
    32   13   55 1    
    33   14   23 ar   
    34   14   56 1    
    35   15   23 ar   
    36   15   57 1    
    37   16   17 ar   
    38   16   24 ar   
    39   16   58 1    
    40   17   25 ar   
    41   17   59 1    
    42   18   24 ar   
    43   18   26 ar   
    44   18   60 1    
    45   19   20 1    
    46   19   40 1    
    47   19   61 1    
    48   19   62 1    
    49   21   27 1    
    50   22   29 1    
    51   23   34 1    
    52   24   28 1    
    53   25   26 ar   
    54   25   40 1    
    55   26   39 1    
    56   27   30 1    
    57   27   35 1    
    58   27   63 1    
    59   28   31 1    
    60   28   34 1    
    61   28   64 1    
    62   29   32 1    
    63   29   33 2    
    64   30   36 1    
    65   30   37 2    
    66   31   35 am   BACKBONE|DICT|INTERRES
    67   31   38 2    
    68   32   65 1    
    69   32   66 1    
    70   33   67 1    
    71   33   68 1    
    72   34   69 1    
    73   35   70 1    
@<TRIPOS>SUBSTRUCTURE
     1 <0>         1 GROUP             0       ****    0 ROOT    
@<TRIPOS>MOLECULE
fa7-ligand
70   73    1
SMALL
USER_CHARGES


@<TRIPOS>ATOM
      1 C1         10.8677   46.1264   33.9564 C.3       1 <0>         0.1100 
      2 C2          9.0891   44.5458   27.1585 C.ar      1 <0>        -0.1150 
      3 C3          8.3720   45.1799   36.7583 C.ar      1 <0>        -0.1150 
      4 C4          8.7108   44.4920   28.5138 C.ar      1 <0>        -0.1150 
      5 C5         10.3026   45.1587   26.7912 C.ar      1 <0>        -0.1150 
      6 C6          8.4438   45.1213   35.3559 C.ar      1 <0>        -0.1150 
      7 C7          8.0731   44.0153   37.4860 C.ar      1 <0>        -0.1150 
      8 C8          9.5468   45.0480   29.5018 C.ar      1 <0>        -0.1150 
      9 C9         11.1390   45.7148   27.7790 C.ar      1 <0>        -0.1150 
     10 C10         8.2199   43.9014   34.6890 C.ar      1 <0>        -0.1150 
     11 C11         7.8506   42.8004   36.8097 C.ar      1 <0>        -0.1150 
     12 C12        14.2054   37.6858   30.5520 C.ar      1 <0>        -0.0900 
     13 C13        12.3560   38.5931   29.2410 C.ar      1 <0>        -0.0900 
     14 C14        13.5855   38.1371   31.7332 C.ar      1 <0>        -0.1060 
     15 C15        11.7273   39.0229   30.4244 C.ar      1 <0>        -0.1060 
     16 C16        10.6996   42.1709   30.8925 C.ar      1 <0>        -0.1150 
     17 C17        10.8828   43.5399   30.6294 C.ar      1 <0>        -0.1150 
     18 C18        11.0628   42.5694   33.2449 C.ar      1 <0>        -0.1150 
     19 C19        11.6641   46.2733   30.1973 C.3       1 <0>         0.1818 
     20 C20        10.7689   45.6547   29.1394 C.ar      1 <0>        -0.0418 
     21 C21         7.9200   42.7103   35.3994 C.ar      1 <0>        -0.1150 
     22 C22        13.6123   37.9520   29.2992 C.ar      1 <0>        -0.1190 
     23 C23        12.3631   38.8410   31.6698 C.ar      1 <0>         0.3320 
     24 C24        10.7844   41.6530   32.2054 C.ar      1 <0>        -0.1150 
     25 C25        11.1611   44.4434   31.6818 C.ar      1 <0>         0.0850 
     26 C26        11.2536   43.9526   33.0014 C.ar      1 <0>         0.0850 
     27 C27         7.6819   41.3903   34.7296 C.3       1 <0>         0.1550 
     28 C28        10.5962   40.2007   32.5163 C.3       1 <0>         0.1775 
     29 C29        14.3254   37.6324   28.0652 C.2       1 <0>         0.8270 
     30 C30         6.3032   41.4949   34.0519 C.2       1 <0>         0.7000 
     31 C31         9.6061   40.1737   33.7028 C.2       1 <0>         0.5000 
     32 N1         15.6124   37.2677   28.1044 N.pl3     1 <0>        -0.8850 
     33 N2         13.7084   37.6845   26.8774 N.pl3     1 <0>        -0.8850 
     34 N3         11.8364   39.4725   32.8055 N.pl3     1 <0>        -0.7025 
     35 N4          8.6821   41.1435   33.6957 N.am      1 <0>        -0.5000 
     36 O1          6.1295   40.8804   32.9740 O.co2     1 <0>        -0.8000 
     37 O2          5.4017   42.1113   34.6631 O.co2     1 <0>        -0.8000 
     38 O3          9.6245   39.2531   34.5213 O.2       1 <0>        -0.5000 
     39 O4         11.5323   44.8721   33.9921 O.3       1 <0>        -0.2850 
     40 O5         11.3551   45.7972   31.5008 O.3       1 <0>        -0.2850 
     41 H1         11.1809   46.7227   34.8132 H         1 <0>         0.0300 
     42 H2         11.1212   46.6864   33.0554 H         1 <0>         0.0300 
     43 H3          9.7851   46.0065   34.0169 H         1 <0>         0.0300 
     44 H4          8.4476   44.1198   26.4011 H         1 <0>         0.1150 
     45 H5          8.5422   46.1140   37.2731 H         1 <0>         0.1150 
     46 H6          7.7786   44.0256   28.7969 H         1 <0>         0.1150 
     47 H7         10.5915   45.2037   25.7514 H         1 <0>         0.1150 
     48 H8          8.6674   46.0127   34.7889 H         1 <0>         0.1150 
     49 H9          8.0132   44.0515   38.5637 H         1 <0>         0.1150 
     50 H10         9.2466   45.0063   30.5389 H         1 <0>         0.1150 
     51 H11        12.0664   46.1866   27.4888 H         1 <0>         0.1150 
     52 H12         8.2703   43.8894   33.6105 H         1 <0>         0.1150 
     53 H13         7.6203   41.9163   37.3865 H         1 <0>         0.1150 
     54 H14        15.1707   37.2041   30.6118 H         1 <0>         0.1290 
     55 H15        11.8919   38.8062   28.2885 H         1 <0>         0.1290 
     56 H16        14.0809   37.9911   32.6820 H         1 <0>         0.1410 
     57 H17        10.7982   39.5709   30.3612 H         1 <0>         0.1410 
     58 H18        10.4996   41.5107   30.0620 H         1 <0>         0.1150 
     59 H19        10.8073   43.8707   29.6052 H         1 <0>         0.1150 
     60 H20        11.1325   42.1754   34.2471 H         1 <0>         0.1150 
     61 H21        11.5364   47.3559   30.1515 H         1 <0>         0.0300 
     62 H22        12.7039   46.0435   29.9590 H         1 <0>         0.0300 
     63 H23         7.6622   40.5811   35.4622 H         1 <0>         0.0600 
     64 H24        10.1242   39.7273   31.6531 H         1 <0>         0.0600 
     65 H25        16.1251   37.0250   27.2723 H         1 <0>         0.4455 
     66 H26        16.0160   37.0503   29.0145 H         1 <0>         0.4455 
     67 H27        14.1963   37.4331   26.0312 H         1 <0>         0.4455 
     68 H28        12.7370   37.9564   26.8367 H         1 <0>         0.4455 
     69 H29        11.6978   38.8355   33.5764 H         1 <0>         0.3800 
     70 H30         8.5270   41.6442   32.8337 H         1 <0>         0.3000 
@<TRIPOS>BOND
     1    1   39 1    
     2    1   41 1    
     3    1   42 1    
     4    1   43 1    
     5    2    4 ar   
     6    2    5 ar   
     7    2   44 1    
     8    3    6 ar   
     9    3    7 ar   
    10    3   45 1    
    11    4    8 ar   
    12    4   46 1    
    13    5    9 ar   
    14    5   47 1    
    15    6   10 ar   
    16    6   48 1    
    17    7   11 ar   
    18    7   49 1    
    19    8   20 ar   
    20    8   50 1    
    21    9   20 ar   
    22    9   51 1    
    23   10   21 ar   
    24   10   52 1    
    25   11   21 ar   
    26   11   53 1    
    27   12   14 ar   
    28   12   22 ar   
    29   12   54 1    
    30   13   15 ar   
    31   13   22 ar   
    32   13   55 1    
    33   14   23 ar   
    34   14   56 1    
    35   15   23 ar   
    36   15   57 1    
    37   16   17 ar   
    38   16   24 ar   
    39   16   58 1    
    40   17   25 ar   
    41   17   59 1    
    42   18   24 ar   
    43   18   26 ar   
    44   18   60 1    
    45   19   20 1    
    46   19   40 1    
    47   19   61 1    
    48   19   62 1    
    49   21   27 1    
    50   22   29 1    
    51   23   34 1    
    52   24   28 1    
    53   25   26 ar   
    54   25   40 1    
    55   26   39 1    
    56   27   30 1    
    57   27   35 1    
    58   27   63 1    
    59   28   31 1    
    60   28   34 1    
    61   28   64 1    
    62   29   32 1    
    63   29   33 2    
    64   30   36 1    
    65   30   37 2    
    66   31   35 am   BACKBONE|DICT|INTERRES
    67   31   38 2    
    68   32   65 1    
    69   32   66 1    
    70   33   67 1    
    71   33   68 1    
    72   34   69 1    
    73   35   70 1    
@<TRIPOS>SUBSTRUCTURE
     1 <0>         1 GROUP             0       ****    0 ROOT    
@<TRIPOS>MOLECULE
fa7-ligand
70   73    1
SMALL
USER_CHARGES


@<TRIPOS>ATOM
      1 C1         12.9011   43.8494   34.7636 C.3       1 <0>         0.1100 
      2 C2          9.6628   46.1228   26.7981 C.ar      1 <0>        -0.1150 
      3 C3          8.1594   44.7840   36.9929 C.ar      1 <0>        -0.1150 
      4 C4         10.8830   45.4303   26.9306 C.ar      1 <0>        -0.1150 
      5 C5          9.1040   46.7860   27.9111 C.ar      1 <0>        -0.1150 
      6 C6          7.8669   44.7964   35.6194 C.ar      1 <0>        -0.1150 
      7 C7          8.0661   43.5816   37.7138 C.ar      1 <0>        -0.1150 
      8 C8         11.5358   45.3895   28.1775 C.ar      1 <0>        -0.1150 
      9 C9          9.7620   46.7519   29.1557 C.ar      1 <0>        -0.1150 
     10 C10         7.4863   43.6053   34.9732 C.ar      1 <0>        -0.1150 
     11 C11         7.6665   42.3981   37.0621 C.ar      1 <0>        -0.1150 
     12 C12        13.7890   37.6745   30.6796 C.ar      1 <0>        -0.0900 
     13 C13        12.2038   38.8058   29.2320 C.ar      1 <0>        -0.0900 
     14 C14        13.0467   38.0946   31.7993 C.ar      1 <0>        -0.1060 
     15 C15        11.4710   39.2300   30.3383 C.ar      1 <0>        -0.1060 
     16 C16         9.6204   42.2098   31.2832 C.ar      1 <0>        -0.1150 
     17 C17         9.8249   43.5807   31.0502 C.ar      1 <0>        -0.1150 
     18 C18        11.1060   42.3055   33.1899 C.ar      1 <0>        -0.1150 
     19 C19        11.6845   46.0233   30.6367 C.3       1 <0>         0.1818 
     20 C20        10.9768   46.0476   29.2951 C.ar      1 <0>        -0.0418 
     21 C21         7.3761   42.3787   35.6769 C.ar      1 <0>        -0.1150 
     22 C22        13.3847   38.0502   29.3795 C.ar      1 <0>        -0.1190 
     23 C23        11.8899   38.8868   31.6375 C.ar      1 <0>         0.3320 
     24 C24        10.2433   41.5480   32.3641 C.ar      1 <0>        -0.1150 
     25 C25        10.6553   44.3269   31.9073 C.ar      1 <0>         0.0850 
     26 C26        11.2948   43.6947   32.9916 C.ar      1 <0>         0.0850 
     27 C27         7.0672   41.0818   34.9865 C.3       1 <0>         0.1550 
     28 C28         9.9595   40.1043   32.6428 C.3       1 <0>         0.1775 
     29 C29        14.1876   37.6866   28.2034 C.2       1 <0>         0.8270 
     30 C30         5.6356   41.0733   34.4117 C.2       1 <0>         0.7000 
     31 C31         9.0541   40.0862   33.8841 C.2       1 <0>         0.5000 
     32 N1         15.4627   37.2870   28.3168 N.pl3     1 <0>        -0.8850 
     33 N2         13.6666   37.6863   26.9670 N.pl3     1 <0>        -0.8850 
     34 N3         11.1659   39.2871   32.7649 N.pl3     1 <0>        -0.7025 
     35 N4          8.0286   40.9431   33.9084 N.am      1 <0>        -0.5000 
     36 O1          5.3203   40.0864   33.7092 O.co2     1 <0>        -0.8000 
     37 O2          4.8660   42.0208   34.6818 O.co2     1 <0>        -0.8000 
     38 O3          9.2690   39.2872   34.7947 O.2       1 <0>        -0.5000 
     39 O4         12.0668   44.4854   33.8109 O.3       1 <0>        -0.2850 
     40 O5         10.8352   45.6751   31.7227 O.3       1 <0>        -0.2850 
     41 H1         13.4801   44.6007   35.3015 H         1 <0>         0.0300 
     42 H2         12.3021   43.3090   35.4897 H         1 <0>         0.0300 
     43 H3         13.6041   43.1625   34.2916 H         1 <0>         0.0300 
     44 H4          9.1567   46.1438   25.8446 H         1 <0>         0.1150 
     45 H5          8.4683   45.6914   37.4912 H         1 <0>         0.1150 
     46 H6         11.3144   44.9234   26.0778 H         1 <0>         0.1150 
     47 H7          8.1686   47.3167   27.8110 H         1 <0>         0.1150 
     48 H8          7.9516   45.7145   35.0560 H         1 <0>         0.1150 
     49 H9          8.3144   43.5721   38.7648 H         1 <0>         0.1150 
     50 H10        12.4624   44.8442   28.2735 H         1 <0>         0.1150 
     51 H11         9.3305   47.2584   30.0083 H         1 <0>         0.1150 
     52 H12         7.2885   43.6333   33.9115 H         1 <0>         0.1150 
     53 H13         7.6217   41.4836   37.6356 H         1 <0>         0.1150 
     54 H14        14.6756   37.0797   30.8361 H         1 <0>         0.1290 
     55 H15        11.8544   39.1464   28.2835 H         1 <0>         0.1290 
     56 H16        13.3876   37.8209   32.7838 H         1 <0>         0.1410 
     57 H17        10.5985   39.8326   30.1473 H         1 <0>         0.1410 
     58 H18         8.9554   41.6678   30.6256 H         1 <0>         0.1150 
     59 H19         9.3226   44.0602   30.2234 H         1 <0>         0.1150 
     60 H20        11.5878   41.7954   34.0091 H         1 <0>         0.1150 
     61 H21        12.0673   47.0245   30.8277 H         1 <0>         0.0300 
     62 H22        12.5511   45.3598   30.6038 H         1 <0>         0.0300 
     63 H23         7.1331   40.2464   35.6853 H         1 <0>         0.0600 
     64 H24         9.3253   39.6872   31.8611 H         1 <0>         0.0600 
     65 H25        15.9139   36.8340   27.5323 H         1 <0>         0.4455 
     66 H26        15.9044   37.2579   29.2229 H         1 <0>         0.4455 
     67 H27        14.1944   37.2919   26.1883 H         1 <0>         0.4455 
     68 H28        12.7178   38.0243   26.7958 H         1 <0>         0.4455 
     69 H29        11.4215   38.9234   33.6723 H         1 <0>         0.3800 
     70 H30         7.8959   41.5494   33.1128 H         1 <0>         0.3000 
@<TRIPOS>BOND
     1    1   39 1    
     2    1   41 1    
     3    1   42 1    
     4    1   43 1    
     5    2    4 ar   
     6    2    5 ar   
     7    2   44 1    
     8    3    6 ar   
     9    3    7 ar   
    10    3   45 1    
    11    4    8 ar   
    12    4   46 1    
    13    5    9 ar   
    14    5   47 1    
    15    6   10 ar   
    16    6   48 1    
    17    7   11 ar   
    18    7   49 1    
    19    8   20 ar   
    20    8   50 1    
    21    9   20 ar   
    22    9   51 1    
    23   10   21 ar   
    24   10   52 1    
    25   11   21 ar   
    26   11   53 1    
    27   12   14 ar   
    28   12   22 ar   
    29   12   54 1    
    30   13   15 ar   
    31   13   22 ar   
    32   13   55 1    
    33   14   23 ar   
    34   14   56 1    
    35   15   23 ar   
    36   15   57 1    
    37   16   17 ar   
    38   16   24 ar   
    39   16   58 1    
    40   17   25 ar   
    41   17   59 1    
    42   18   24 ar   
    43   18   26 ar   
    44   18   60 1    
    45   19   20 1    
    46   19   40 1    
    47   19   61 1    
    48   19   62 1    
    49   21   27 1    
    50   22   29 1    
    51   23   34 1    
    52   24   28 1    
    53   25   26 ar   
    54   25   40 1    
    55   26   39 1    
    56   27   30 1    
    57   27   35 1    
    58   27   63 1    
    59   28   31 1    
    60   28   34 1    
    61   28   64 1    
    62   29   32 1    
    63   29   33 2    
    64   30   36 1    
    65   30   37 2    
    66   31   35 am   BACKBONE|DICT|INTERRES
    67   31   38 2    
    68   32   65 1    
    69   32   66 1    
    70   33   67 1    
    71   33   68 1    
    72   34   69 1    
    73   35   70 1    
@<TRIPOS>SUBSTRUCTURE
     1 <0>         1 GROUP             0       ****    0 ROOT    
@<TRIPOS>MOLECULE
fa7-ligand
70   73    1
SMALL
USER_CHARGES


@<TRIPOS>ATOM
      1 C1         12.0287   44.2243   35.2097 C.3       1 <0>         0.1100 
      2 C2          9.3327   46.2000   26.7164 C.ar      1 <0>        -0.1150 
      3 C3          8.1872   44.7789   36.8817 C.ar      1 <0>        -0.1150 
      4 C4          8.8089   46.7030   27.9237 C.ar      1 <0>        -0.1150 
      5 C5         10.6383   45.6711   26.6823 C.ar      1 <0>        -0.1150 
      6 C6          7.9167   44.7867   35.5031 C.ar      1 <0>        -0.1150 
      7 C7          8.0665   43.5807   37.6047 C.ar      1 <0>        -0.1150 
      8 C8          9.5848   46.6678   29.0996 C.ar      1 <0>        -0.1150 
      9 C9         11.4120   45.6320   27.8572 C.ar      1 <0>        -0.1150 
     10 C10         7.5414   43.5951   34.8533 C.ar      1 <0>        -0.1150 
     11 C11         7.6664   42.3989   36.9509 C.ar      1 <0>        -0.1150 
     12 C12        14.0382   37.7534   30.7421 C.ar      1 <0>        -0.0900 
     13 C13        12.3225   38.5800   29.2452 C.ar      1 <0>        -0.0900 
     14 C14        13.2681   38.1797   31.8447 C.ar      1 <0>        -0.1060 
     15 C15        11.5681   39.0210   30.3300 C.ar      1 <0>        -0.1060 
     16 C16        10.0947   42.1060   31.0394 C.ar      1 <0>        -0.1150 
     17 C17        10.3330   43.4579   30.7425 C.ar      1 <0>        -0.1150 
     18 C18        10.9916   42.4281   33.2572 C.ar      1 <0>        -0.1150 
     19 C19        11.7241   46.0781   30.3359 C.3       1 <0>         0.1818 
     20 C20        10.8839   46.1204   29.0720 C.ar      1 <0>        -0.0418 
     21 C21         7.4165   42.3714   35.5588 C.ar      1 <0>        -0.1150 
     22 C22        13.5885   37.9969   29.4229 C.ar      1 <0>        -0.1190 
     23 C23        12.0469   38.8582   31.6430 C.ar      1 <0>         0.3320 
     24 C24        10.4081   41.5591   32.3024 C.ar      1 <0>        -0.1150 
     25 C25        10.8631   44.3233   31.7228 C.ar      1 <0>         0.0850 
     26 C26        11.1839   43.8088   32.9965 C.ar      1 <0>         0.0850 
     27 C27         7.1368   41.0689   34.8671 C.3       1 <0>         0.1550 
     28 C28        10.1074   40.1171   32.5981 C.3       1 <0>         0.1775 
     29 C29        14.4197   37.6864   28.2518 C.2       1 <0>         0.8270 
     30 C30         5.7064   41.0436   34.2818 C.2       1 <0>         0.7000 
     31 C31         9.1655   40.0868   33.8127 C.2       1 <0>         0.5000 
     32 N1         13.9352   37.6862   27.0008 N.pl3     1 <0>        -0.8850 
     33 N2         15.6853   37.2864   28.3884 N.pl3     1 <0>        -0.8850 
     34 N3         11.3037   39.2885   32.7469 N.pl3     1 <0>        -0.7025 
     35 N4          8.1291   40.9332   33.8104 N.am      1 <0>        -0.5000 
     36 O1          5.4556   40.1465   33.4440 O.co2     1 <0>        -0.8000 
     37 O2          4.8692   41.8831   34.6835 O.co2     1 <0>        -0.8000 
     38 O3          9.3676   39.2805   34.7180 O.2       1 <0>        -0.5000 
     39 O4         11.6657   44.7063   33.9251 O.3       1 <0>        -0.2850 
     40 O5         11.0290   45.6737   31.5102 O.3       1 <0>        -0.2850 
     41 H1         12.4026   45.0517   35.8134 H         1 <0>         0.0300 
     42 H2         11.1683   43.8017   35.7296 H         1 <0>         0.0300 
     43 H3         12.8204   43.4761   35.1458 H         1 <0>         0.0300 
     44 H4          8.7342   46.2191   25.8175 H         1 <0>         0.1150 
     45 H5          8.4955   45.6833   37.3876 H         1 <0>         0.1150 
     46 H6          7.8086   47.1118   27.9477 H         1 <0>         0.1150 
     47 H7         11.0438   45.2930   25.7561 H         1 <0>         0.1150 
     48 H8          8.0155   45.7024   34.9388 H         1 <0>         0.1150 
     49 H9          8.2865   43.5709   38.6639 H         1 <0>         0.1150 
     50 H10         9.1801   47.0503   30.0258 H         1 <0>         0.1150 
     51 H11        12.4100   45.2189   27.8236 H         1 <0>         0.1150 
     52 H12         7.3627   43.6179   33.7885 H         1 <0>         0.1150 
     53 H13         7.6008   41.4875   37.5269 H         1 <0>         0.1150 
     54 H14        14.9905   37.2846   30.9307 H         1 <0>         0.1290 
     55 H15        11.9112   38.7784   28.2835 H         1 <0>         0.1290 
     56 H16        13.6453   38.0253   32.8459 H         1 <0>         0.1410 
     57 H17        10.6264   39.4899   30.1049 H         1 <0>         0.1410 
     58 H18         9.6431   41.4882   30.2779 H         1 <0>         0.1150 
     59 H19        10.0478   43.8202   29.7677 H         1 <0>         0.1150 
     60 H20        11.2460   42.0149   34.2209 H         1 <0>         0.1150 
     61 H21        12.0662   47.0954   30.5179 H         1 <0>         0.0300 
     62 H22        12.6150   45.4627   30.1938 H         1 <0>         0.0300 
     63 H23         7.2011   40.2369   35.5706 H         1 <0>         0.0600 
     64 H24         9.4782   39.6899   31.8191 H         1 <0>         0.0600 
     65 H25        14.4653   37.2761   26.2284 H         1 <0>         0.4455 
     66 H26        12.9906   38.0089   26.8205 H         1 <0>         0.4455 
     67 H27        16.1497   36.8385   27.6086 H         1 <0>         0.4455 
     68 H28        16.1025   37.2334   29.3053 H         1 <0>         0.4455 
     69 H29        11.6021   39.0280   33.6768 H         1 <0>         0.3800 
     70 H30         8.0079   41.5324   33.0083 H         1 <0>         0.3000 
@<TRIPOS>BOND
     1    1   39 1    
     2    1   41 1    
     3    1   42 1    
     4    1   43 1    
     5    2    4 ar   
     6    2    5 ar   
     7    2   44 1    
     8    3    6 ar   
     9    3    7 ar   
    10    3   45 1    
    11    4    8 ar   
    12    4   46 1    
    13    5    9 ar   
    14    5   47 1    
    15    6   10 ar   
    16    6   48 1    
    17    7   11 ar   
    18    7   49 1    
    19    8   20 ar   
    20    8   50 1    
    21    9   20 ar   
    22    9   51 1    
    23   10   21 ar   
    24   10   52 1    
    25   11   21 ar   
    26   11   53 1    
    27   12   14 ar   
    28   12   22 ar   
    29   12   54 1    
    30   13   15 ar   
    31   13   22 ar   
    32   13   55 1    
    33   14   23 ar   
    34   14   56 1    
    35   15   23 ar   
    36   15   57 1    
    37   16   17 ar   
    38   16   24 ar   
    39   16   58 1    
    40   17   25 ar   
    41   17   59 1    
    42   18   24 ar   
    43   18   26 ar   
    44   18   60 1    
    45   19   20 1    
    46   19   40 1    
    47   19   61 1    
    48   19   62 1    
    49   21   27 1    
    50   22   29 1    
    51   23   34 1    
    52   24   28 1    
    53   25   26 ar   
    54   25   40 1    
    55   26   39 1    
    56   27   30 1    
    57   27   35 1    
    58   27   63 1    
    59   28   31 1    
    60   28   34 1    
    61   28   64 1    
    62   29   32 1    
    63   29   33 2    
    64   30   36 1    
    65   30   37 2    
    66   31   35 am   BACKBONE|DICT|INTERRES
    67   31   38 2    
    68   32   65 1    
    69   32   66 1    
    70   33   67 1    
    71   33   68 1    
    72   34   69 1    
    73   35   70 1    
@<TRIPOS>SUBSTRUCTURE
     1 <0>         1 GROUP             0       ****    0 ROOT    
@<TRIPOS>MOLECULE
fa7-ligand
70   73    1
SMALL
USER_CHARGES


@<TRIPOS>ATOM
      1 C1         13.8483   43.6569   34.8060 C.3       1 <0>         0.1100 
      2 C2         10.7985   46.8123   28.2897 C.ar      1 <0>        -0.1150 
      3 C3          8.0671   38.0848   38.6764 C.ar      1 <0>        -0.1150 
      4 C4         11.6824   46.0876   29.1097 C.ar      1 <0>        -0.1150 
      5 C5          9.9004   47.7295   28.8683 C.ar      1 <0>        -0.1150 
      6 C6          8.4368   37.7396   37.3671 C.ar      1 <0>        -0.1150 
      7 C7          7.4838   39.3374   38.9229 C.ar      1 <0>        -0.1150 
      8 C8         11.6660   46.2805   30.5042 C.ar      1 <0>        -0.1150 
      9 C9          9.8748   47.9085   30.2663 C.ar      1 <0>        -0.1150 
     10 C10         8.2189   38.6476   36.3135 C.ar      1 <0>        -0.1150 
     11 C11         7.2677   40.2365   37.8610 C.ar      1 <0>        -0.1150 
     12 C12        13.6645   37.9558   30.8704 C.ar      1 <0>        -0.0900 
     13 C13        11.9828   38.6451   29.2729 C.ar      1 <0>        -0.0900 
     14 C14        12.8704   38.4866   31.9091 C.ar      1 <0>        -0.1060 
     15 C15        11.1997   39.1763   30.2993 C.ar      1 <0>        -0.1060 
     16 C16         9.4792   43.2740   32.2474 C.ar      1 <0>        -0.1150 
     17 C17         9.7335   44.6263   32.5036 C.ar      1 <0>        -0.1150 
     18 C18        11.3887   42.6417   33.5838 C.ar      1 <0>        -0.1150 
     19 C19        10.6466   47.3443   32.6177 C.3       1 <0>         0.1818 
     20 C20        10.7469   47.1754   31.0983 C.ar      1 <0>        -0.0418 
     21 C21         7.6398   39.9271   36.5225 C.ar      1 <0>        -0.1150 
     22 C22        13.2511   38.0865   29.5251 C.ar      1 <0>        -0.1190 
     23 C23        11.6665   39.1736   31.6304 C.ar      1 <0>         0.3320 
     24 C24        10.2993   42.2488   32.7670 C.ar      1 <0>        -0.1150 
     25 C25        10.8594   45.0100   33.2626 C.ar      1 <0>         0.0850 
     26 C26        11.6642   44.0093   33.8499 C.ar      1 <0>         0.0850 
     27 C27         7.4057   40.8342   35.3324 C.3       1 <0>         0.1550 
     28 C28         9.9497   40.8260   32.4422 C.3       1 <0>         0.1775 
     29 C29        14.1159   37.6866   28.4011 C.2       1 <0>         0.8270 
     30 C30         7.1782   42.2910   35.7709 C.2       1 <0>         0.7000 
     31 C31         8.6380   40.5417   33.1908 C.2       1 <0>         0.5000 
     32 N1         15.3809   37.2866   28.5866 N.pl3     1 <0>        -0.8850 
     33 N2         13.6706   37.6866   27.1349 N.pl3     1 <0>        -0.8850 
     34 N3         10.9904   39.8173   32.6821 N.pl3     1 <0>        -0.7025 
     35 N4          8.5936   40.8508   34.4917 N.am      1 <0>        -0.5000 
     36 O1          6.0683   42.7944   35.4834 O.co2     1 <0>        -0.8000 
     37 O2          8.1149   42.8824   36.3526 O.co2     1 <0>        -0.8000 
     38 O3          7.6746   40.0868   32.5766 O.2       1 <0>        -0.5000 
     39 O4         12.6735   44.4418   34.6838 O.3       1 <0>        -0.2850 
     40 O5         11.2666   46.3234   33.4047 O.3       1 <0>        -0.2850 
     41 H1         14.4694   44.0862   35.5898 H         1 <0>         0.0300 
     42 H2         13.6605   42.6225   35.0835 H         1 <0>         0.0300 
     43 H3         14.4256   43.6874   33.8835 H         1 <0>         0.0300 
     44 H4         10.8147   46.6694   27.2192 H         1 <0>         0.1150 
     45 H5          8.2341   37.3870   39.4837 H         1 <0>         0.1150 
     46 H6         12.3829   45.3928   28.6708 H         1 <0>         0.1150 
     47 H7          9.2248   48.2916   28.2404 H         1 <0>         0.1150 
     48 H8          8.8806   36.7737   37.1700 H         1 <0>         0.1150 
     49 H9          7.2003   39.6120   39.9287 H         1 <0>         0.1150 
     50 H10        12.3660   45.7238   31.1112 H         1 <0>         0.1150 
     51 H11         9.1701   48.6017   30.7020 H         1 <0>         0.1150 
     52 H12         8.4980   38.3404   35.3158 H         1 <0>         0.1150 
     53 H13         6.8147   41.1845   38.1089 H         1 <0>         0.1150 
     54 H14        14.6122   37.5031   31.1201 H         1 <0>         0.1290 
     55 H15        11.5890   38.7325   28.2835 H         1 <0>         0.1290 
     56 H16        13.2444   38.4422   32.9225 H         1 <0>         0.1410 
     57 H17        10.2530   39.5935   29.9986 H         1 <0>         0.1410 
     58 H18         8.6267   43.0193   31.6343 H         1 <0>         0.1150 
     59 H19         9.0686   45.3559   32.0677 H         1 <0>         0.1150 
     60 H20        12.0066   41.8727   34.0177 H         1 <0>         0.1150 
     61 H21         9.6013   47.4438   32.9151 H         1 <0>         0.0300 
     62 H22        11.1234   48.2892   32.8800 H         1 <0>         0.0300 
     63 H23         6.5293   40.4921   34.7797 H         1 <0>         0.0600 
     64 H24         9.6481   40.8425   31.4032 H         1 <0>         0.0600 
     65 H25        15.8790   36.8459   27.8239 H         1 <0>         0.4455 
     66 H26        15.7751   37.2539   29.5143 H         1 <0>         0.4455 
     67 H27        14.2338   37.2797   26.3916 H         1 <0>         0.4455 
     68 H28        12.7388   38.0362   26.9086 H         1 <0>         0.4455 
     69 H29        11.5098   39.9181   33.5410 H         1 <0>         0.3800 
     70 H30         9.3836   41.3444   34.8797 H         1 <0>         0.3000 
@<TRIPOS>BOND
     1    1   39 1    
     2    1   41 1    
     3    1   42 1    
     4    1   43 1    
     5    2    4 ar   
     6    2    5 ar   
     7    2   44 1    
     8    3    6 ar   
     9    3    7 ar   
    10    3   45 1    
    11    4    8 ar   
    12    4   46 1    
    13    5    9 ar   
    14    5   47 1    
    15    6   10 ar   
    16    6   48 1    
    17    7   11 ar   
    18    7   49 1    
    19    8   20 ar   
    20    8   50 1    
    21    9   20 ar   
    22    9   51 1    
    23   10   21 ar   
    24   10   52 1    
    25   11   21 ar   
    26   11   53 1    
    27   12   14 ar   
    28   12   22 ar   
    29   12   54 1    
    30   13   15 ar   
    31   13   22 ar   
    32   13   55 1    
    33   14   23 ar   
    34   14   56 1    
    35   15   23 ar   
    36   15   57 1    
    37   16   17 ar   
    38   16   24 ar   
    39   16   58 1    
    40   17   25 ar   
    41   17   59 1    
    42   18   24 ar   
    43   18   26 ar   
    44   18   60 1    
    45   19   20 1    
    46   19   40 1    
    47   19   61 1    
    48   19   62 1    
    49   21   27 1    
    50   22   29 1    
    51   23   34 1    
    52   24   28 1    
    53   25   26 ar   
    54   25   40 1    
    55   26   39 1    
    56   27   30 1    
    57   27   35 1    
    58   27   63 1    
    59   28   31 1    
    60   28   34 1    
    61   28   64 1    
    62   29   32 1    
    63   29   33 2    
    64   30   36 1    
    65   30   37 2    
    66   31   35 am   BACKBONE|DICT|INTERRES
    67   31   38 2    
    68   32   65 1    
    69   32   66 1    
    70   33   67 1    
    71   33   68 1    
    72   34   69 1    
    73   35   70 1    
@<TRIPOS>SUBSTRUCTURE
     1 <0>         1 GROUP             0       ****    0 ROOT    
@<TRIPOS>MOLECULE
fa7-ligand
70   73    1
SMALL
USER_CHARGES


@<TRIPOS>ATOM
      1 C1         12.5009   43.6697   34.5426 C.3       1 <0>         0.1100 
      2 C2          9.6787   46.4569   26.5664 C.ar      1 <0>        -0.1150 
      3 C3          8.2585   38.0858   38.2062 C.ar      1 <0>        -0.1150 
      4 C4          9.2154   47.2326   27.6457 C.ar      1 <0>        -0.1150 
      5 C5         10.8512   45.6864   26.7018 C.ar      1 <0>        -0.1150 
      6 C6          7.4923   39.2419   38.4139 C.ar      1 <0>        -0.1150 
      7 C7          8.7409   37.8031   36.9189 C.ar      1 <0>        -0.1150 
      8 C8          9.9094   47.2204   28.8704 C.ar      1 <0>        -0.1150 
      9 C9         11.5479   45.6780   27.9253 C.ar      1 <0>        -0.1150 
     10 C10         7.2145   40.1056   37.3360 C.ar      1 <0>        -0.1150 
     11 C11         8.4680   38.6807   35.8520 C.ar      1 <0>        -0.1150 
     12 C12        13.9289   37.9650   31.0854 C.ar      1 <0>        -0.0900 
     13 C13        12.5785   38.2937   29.1006 C.ar      1 <0>        -0.0900 
     14 C14        12.8723   38.4511   31.8832 C.ar      1 <0>        -0.1060 
     15 C15        11.5233   38.7905   29.8933 C.ar      1 <0>        -0.1060 
     16 C16         9.5609   42.5898   30.5584 C.ar      1 <0>        -0.1150 
     17 C17         9.8687   43.9570   30.4879 C.ar      1 <0>        -0.1150 
     18 C18        10.9475   42.3765   32.5294 C.ar      1 <0>        -0.1150 
     19 C19        11.7768   46.3761   30.3595 C.3       1 <0>         0.1818 
     20 C20        11.0687   46.4317   29.0187 C.ar      1 <0>        -0.0418 
     21 C21         7.7121   39.8704   36.0237 C.ar      1 <0>        -0.1150 
     22 C22        13.8083   37.9090   29.6785 C.ar      1 <0>        -0.1190 
     23 C23        11.6683   38.8957   31.2981 C.ar      1 <0>         0.3320 
     24 C24        10.0751   41.7751   31.5876 C.ar      1 <0>        -0.1150 
     25 C25        10.7171   44.5487   31.4459 C.ar      1 <0>         0.0850 
     26 C26        11.2552   43.7591   32.4833 C.ar      1 <0>         0.0850 
     27 C27         7.4215   40.7871   34.8463 C.3       1 <0>         0.1550 
     28 C28         9.6465   40.3499   31.6824 C.3       1 <0>         0.1775 
     29 C29        14.9635   37.5614   28.8215 C.2       1 <0>         0.8270 
     30 C30         7.3139   42.2344   35.3601 C.2       1 <0>         0.7000 
     31 C31         8.3777   40.3979   32.5637 C.2       1 <0>         0.5000 
     32 N1         14.8636   37.5365   27.4837 N.pl3     1 <0>        -0.8850 
     33 N2         16.1671   37.2865   29.3382 N.pl3     1 <0>        -0.8850 
     34 N3         10.6878   39.4328   32.1528 N.pl3     1 <0>        -0.7025 
     35 N4          8.5073   40.7261   33.8600 N.am      1 <0>        -0.5000 
     36 O1          8.3811   42.8275   35.6395 O.co2     1 <0>        -0.8000 
     37 O2          6.1591   42.7093   35.4836 O.co2     1 <0>        -0.8000 
     38 O3          7.2943   40.0862   32.0668 O.2       1 <0>        -0.5000 
     39 O4         12.0510   44.3985   33.4112 O.3       1 <0>        -0.2850 
     40 O5         10.9704   45.8990   31.4301 O.3       1 <0>        -0.2850 
     41 H1         13.0435   44.3398   35.2097 H         1 <0>         0.0300 
     42 H2         11.6608   43.2578   35.1028 H         1 <0>         0.0300 
     43 H3         13.1846   42.8698   34.2597 H         1 <0>         0.0300 
     44 H4          9.1403   46.4557   25.6317 H         1 <0>         0.1150 
     45 H5          8.4668   37.4115   39.0253 H         1 <0>         0.1150 
     46 H6          8.3202   47.8263   27.5384 H         1 <0>         0.1150 
     47 H7         11.2104   45.0992   25.8695 H         1 <0>         0.1150 
     48 H8          7.1116   39.4656   39.4000 H         1 <0>         0.1150 
     49 H9          9.3162   36.9047   36.7446 H         1 <0>         0.1150 
     50 H10         9.5406   47.7973   29.7058 H         1 <0>         0.1150 
     51 H11        12.4374   45.0731   28.0289 H         1 <0>         0.1150 
     52 H12         6.6097   40.9739   37.5493 H         1 <0>         0.1150 
     53 H13         8.8495   38.4110   34.8790 H         1 <0>         0.1150 
     54 H14        14.8498   37.6875   31.5740 H         1 <0>         0.1290 
     55 H15        12.4632   38.2736   28.0293 H         1 <0>         0.1290 
     56 H16        13.0189   38.5266   32.9507 H         1 <0>         0.1410 
     57 H17        10.6252   39.1014   29.3840 H         1 <0>         0.1410 
     58 H18         8.8840   42.1719   29.8268 H         1 <0>         0.1150 
     59 H19         9.4118   44.5486   29.7097 H         1 <0>         0.1150 
     60 H20        11.3507   41.7608   33.3172 H         1 <0>         0.1150 
     61 H21        12.0669   47.3933   30.6213 H         1 <0>         0.0300 
     62 H22        12.6958   45.7915   30.2861 H         1 <0>         0.0300 
     63 H23         6.4680   40.5067   34.3976 H         1 <0>         0.0600 
     64 H24         9.2952   40.0130   30.7096 H         1 <0>         0.0600 
     65 H25        15.5718   37.1026   26.8990 H         1 <0>         0.4455 
     66 H26        13.9666   37.6946   27.0530 H         1 <0>         0.4455 
     67 H27        16.9282   37.0008   28.7439 H         1 <0>         0.4455 
     68 H28        16.2954   37.2667   30.3366 H         1 <0>         0.4455 
     69 H29        10.9001   39.4662   33.1395 H         1 <0>         0.3800 
     70 H30         9.3905   41.1003   34.1709 H         1 <0>         0.3000 
@<TRIPOS>BOND
     1    1   39 1    
     2    1   41 1    
     3    1   42 1    
     4    1   43 1    
     5    2    4 ar   
     6    2    5 ar   
     7    2   44 1    
     8    3    6 ar   
     9    3    7 ar   
    10    3   45 1    
    11    4    8 ar   
    12    4   46 1    
    13    5    9 ar   
    14    5   47 1    
    15    6   10 ar   
    16    6   48 1    
    17    7   11 ar   
    18    7   49 1    
    19    8   20 ar   
    20    8   50 1    
    21    9   20 ar   
    22    9   51 1    
    23   10   21 ar   
    24   10   52 1    
    25   11   21 ar   
    26   11   53 1    
    27   12   14 ar   
    28   12   22 ar   
    29   12   54 1    
    30   13   15 ar   
    31   13   22 ar   
    32   13   55 1    
    33   14   23 ar   
    34   14   56 1    
    35   15   23 ar   
    36   15   57 1    
    37   16   17 ar   
    38   16   24 ar   
    39   16   58 1    
    40   17   25 ar   
    41   17   59 1    
    42   18   24 ar   
    43   18   26 ar   
    44   18   60 1    
    45   19   20 1    
    46   19   40 1    
    47   19   61 1    
    48   19   62 1    
    49   21   27 1    
    50   22   29 1    
    51   23   34 1    
    52   24   28 1    
    53   25   26 ar   
    54   25   40 1    
    55   26   39 1    
    56   27   30 1    
    57   27   35 1    
    58   27   63 1    
    59   28   31 1    
    60   28   34 1    
    61   28   64 1    
    62   29   32 1    
    63   29   33 2    
    64   30   36 1    
    65   30   37 2    
    66   31   35 am   BACKBONE|DICT|INTERRES
    67   31   38 2    
    68   32   65 1    
    69   32   66 1    
    70   33   67 1    
    71   33   68 1    
    72   34   69 1    
    73   35   70 1    
@<TRIPOS>SUBSTRUCTURE
     1 <0>         1 GROUP             0       ****    0 ROOT    
@<TRIPOS>MOLECULE
fa7-ligand
70   73    1
SMALL
USER_CHARGES


@<TRIPOS>ATOM
      1 C1         14.0471   43.6860   34.8431 C.3       1 <0>         0.1100 
      2 C2         10.1440   48.0164   29.1766 C.ar      1 <0>        -0.1150 
      3 C3          8.2217   37.9548   38.4175 C.ar      1 <0>        -0.1150 
      4 C4         11.1319   47.1583   29.6962 C.ar      1 <0>        -0.1150 
      5 C5          9.2918   48.7155   30.0523 C.ar      1 <0>        -0.1150 
      6 C6          7.4447   39.1010   38.6398 C.ar      1 <0>        -0.1150 
      7 C7          8.6888   37.6760   37.1241 C.ar      1 <0>        -0.1150 
      8 C8         11.2665   46.9996   31.0885 C.ar      1 <0>        -0.1150 
      9 C9          9.4194   48.5459   31.4450 C.ar      1 <0>        -0.1150 
     10 C10         7.1386   39.9605   37.5686 C.ar      1 <0>        -0.1150 
     11 C11         8.3870   38.5480   36.0634 C.ar      1 <0>        -0.1150 
     12 C12        13.6396   37.9236   30.8623 C.ar      1 <0>        -0.0900 
     13 C13        11.9723   38.6703   29.2744 C.ar      1 <0>        -0.0900 
     14 C14        12.8750   38.4866   31.9040 C.ar      1 <0>        -0.1060 
     15 C15        11.2094   39.2244   30.3094 C.ar      1 <0>        -0.1060 
     16 C16         9.5217   43.4430   32.5649 C.ar      1 <0>        -0.1150 
     17 C17         9.7503   44.7696   32.9508 C.ar      1 <0>        -0.1150 
     18 C18        11.5379   42.7435   33.6926 C.ar      1 <0>        -0.1150 
     19 C19        10.4842   47.5002   33.4875 C.3       1 <0>         0.1818 
     20 C20        10.3997   47.6791   31.9731 C.ar      1 <0>        -0.0418 
     21 C21         7.6152   39.7238   36.2474 C.ar      1 <0>        -0.1150 
     22 C22        13.2300   38.0829   29.5198 C.ar      1 <0>        -0.1190 
     23 C23        11.7033   39.2288   31.6313 C.ar      1 <0>         0.3320 
     24 C24        10.4036   42.3949   32.9168 C.ar      1 <0>        -0.1150 
     25 C25        10.9115   45.1103   33.6750 C.ar      1 <0>         0.0850 
     26 C26        11.7931   44.0847   34.0812 C.ar      1 <0>         0.0850 
     27 C27         7.3177   40.5996   35.0471 C.3       1 <0>         0.1550 
     28 C28        10.1113   41.0044   32.4213 C.3       1 <0>         0.1775 
     29 C29        14.0999   37.6866   28.3979 C.2       1 <0>         0.8270 
     30 C30         6.8061   41.9809   35.4836 C.2       1 <0>         0.7000 
     31 C31         8.7504   40.5949   33.0076 C.2       1 <0>         0.5000 
     32 N1         15.3644   37.2866   28.5894 N.pl3     1 <0>        -0.8850 
     33 N2         13.6666   37.6866   27.1282 N.pl3     1 <0>        -0.8850 
     34 N3         11.1334   39.9825   32.6710 N.pl3     1 <0>        -0.7025 
     35 N4          8.5504   40.8323   34.3095 N.am      1 <0>        -0.5000 
     36 O1          5.6668   42.3111   35.0835 O.co2     1 <0>        -0.8000 
     37 O2          7.5443   42.6865   36.2058 O.co2     1 <0>        -0.8000 
     38 O3          7.9017   40.0865   32.2762 O.2       1 <0>        -0.5000 
     39 O4         12.8641   44.4695   34.8602 O.3       1 <0>        -0.2850 
     40 O5         11.2776   46.4112   33.9596 O.3       1 <0>        -0.2850 
     41 H1         14.7349   44.0867   35.5845 H         1 <0>         0.0300 
     42 H2         13.8832   42.6394   35.0839 H         1 <0>         0.0300 
     43 H3         14.5529   43.7495   33.8835 H         1 <0>         0.0300 
     44 H4         10.0425   48.1407   28.1084 H         1 <0>         0.1150 
     45 H5          8.4576   37.2860   39.2332 H         1 <0>         0.1150 
     46 H6         11.7913   46.6245   29.0274 H         1 <0>         0.1150 
     47 H7          8.5357   49.3776   29.6564 H         1 <0>         0.1150 
     48 H8          7.0792   39.3199   39.6327 H         1 <0>         0.1150 
     49 H9          9.2735   36.7854   36.9446 H         1 <0>         0.1150 
     50 H10        12.0309   46.3397   31.4708 H         1 <0>         0.1150 
     51 H11         8.7560   49.0786   32.1113 H         1 <0>         0.1150 
     52 H12         6.5307   40.8220   37.7973 H         1 <0>         0.1150 
     53 H13         8.7540   38.2933   35.0807 H         1 <0>         0.1150 
     54 H14        14.5720   37.4388   31.1090 H         1 <0>         0.1290 
     55 H15        11.5822   38.7739   28.2836 H         1 <0>         0.1290 
     56 H16        13.2648   38.4440   32.9117 H         1 <0>         0.1410 
     57 H17        10.2773   39.6852   30.0269 H         1 <0>         0.1410 
     58 H18         8.6414   43.2298   31.9751 H         1 <0>         0.1150 
     59 H19         9.0356   45.5155   32.6402 H         1 <0>         0.1150 
     60 H20        12.2191   41.9624   33.9862 H         1 <0>         0.1150 
     61 H21         9.4839   47.4448   33.9196 H         1 <0>         0.0300 
     62 H22        10.9409   48.4046   33.8833 H         1 <0>         0.0300 
     63 H23         6.5610   40.1209   34.4231 H         1 <0>         0.0600 
     64 H24         9.9402   41.1392   31.3591 H         1 <0>         0.0600 
     65 H25        15.8672   36.8523   27.8266 H         1 <0>         0.4455 
     66 H26        15.7525   37.2454   29.5188 H         1 <0>         0.4455 
     67 H27        14.2351   37.2760   26.3910 H         1 <0>         0.4455 
     68 H28        12.7362   38.0353   26.8936 H         1 <0>         0.4455 
     69 H29        11.7139   40.1260   33.4839 H         1 <0>         0.3800 
     70 H30         9.2548   41.3615   34.8016 H         1 <0>         0.3000 
@<TRIPOS>BOND
     1    1   39 1    
     2    1   41 1    
     3    1   42 1    
     4    1   43 1    
     5    2    4 ar   
     6    2    5 ar   
     7    2   44 1    
     8    3    6 ar   
     9    3    7 ar   
    10    3   45 1    
    11    4    8 ar   
    12    4   46 1    
    13    5    9 ar   
    14    5   47 1    
    15    6   10 ar   
    16    6   48 1    
    17    7   11 ar   
    18    7   49 1    
    19    8   20 ar   
    20    8   50 1    
    21    9   20 ar   
    22    9   51 1    
    23   10   21 ar   
    24   10   52 1    
    25   11   21 ar   
    26   11   53 1    
    27   12   14 ar   
    28   12   22 ar   
    29   12   54 1    
    30   13   15 ar   
    31   13   22 ar   
    32   13   55 1    
    33   14   23 ar   
    34   14   56 1    
    35   15   23 ar   
    36   15   57 1    
    37   16   17 ar   
    38   16   24 ar   
    39   16   58 1    
    40   17   25 ar   
    41   17   59 1    
    42   18   24 ar   
    43   18   26 ar   
    44   18   60 1    
    45   19   20 1    
    46   19   40 1    
    47   19   61 1    
    48   19   62 1    
    49   21   27 1    
    50   22   29 1    
    51   23   34 1    
    52   24   28 1    
    53   25   26 ar   
    54   25   40 1    
    55   26   39 1    
    56   27   30 1    
    57   27   35 1    
    58   27   63 1    
    59   28   31 1    
    60   28   34 1    
    61   28   64 1    
    62   29   32 1    
    63   29   33 2    
    64   30   36 1    
    65   30   37 2    
    66   31   35 am   BACKBONE|DICT|INTERRES
    67   31   38 2    
    68   32   65 1    
    69   32   66 1    
    70   33   67 1    
    71   33   68 1    
    72   34   69 1    
    73   35   70 1    
@<TRIPOS>SUBSTRUCTURE
     1 <0>         1 GROUP             0       ****    0 ROOT    
@<TRIPOS>MOLECULE
fa7-ligand
70   73    1
SMALL
USER_CHARGES


@<TRIPOS>ATOM
      1 C1         13.6301   43.5412   34.9518 C.3       1 <0>         0.1100 
      2 C2         10.1975   50.3112   30.4562 C.ar      1 <0>        -0.1150 
      3 C3          8.0697   38.0384   38.4525 C.ar      1 <0>        -0.1150 
      4 C4         11.2649   49.3996   30.5359 C.ar      1 <0>        -0.1150 
      5 C5          9.1001   50.1818   31.3271 C.ar      1 <0>        -0.1150 
      6 C6          7.4773   39.2775   38.7376 C.ar      1 <0>        -0.1150 
      7 C7          8.4635   37.7477   37.1356 C.ar      1 <0>        -0.1150 
      8 C8         11.2399   48.3502   31.4719 C.ar      1 <0>        -0.1150 
      9 C9          9.0829   49.1471   32.2809 C.ar      1 <0>        -0.1150 
     10 C10         7.2671   40.2128   37.7068 C.ar      1 <0>        -0.1150 
     11 C11         8.2513   38.6925   36.1128 C.ar      1 <0>        -0.1150 
     12 C12        13.5769   37.8118   30.7876 C.ar      1 <0>        -0.0900 
     13 C13        12.2257   38.8864   29.0844 C.ar      1 <0>        -0.0900 
     14 C14        12.7606   38.3984   31.7777 C.ar      1 <0>        -0.1060 
     15 C15        11.3907   39.4326   30.0626 C.ar      1 <0>        -0.1060 
     16 C16         9.6597   43.2759   31.7899 C.ar      1 <0>        -0.1150 
     17 C17         9.9530   44.6216   32.0665 C.ar      1 <0>        -0.1150 
     18 C18        11.2943   42.5674   33.4273 C.ar      1 <0>        -0.1150 
     19 C19        10.1224   47.1712   33.4522 C.3       1 <0>         0.1818 
     20 C20        10.1506   48.2296   32.3617 C.ar      1 <0>        -0.0418 
     21 C21         7.6538   39.9563   36.3605 C.ar      1 <0>        -0.1150 
     22 C22        13.3362   38.0870   29.4240 C.ar      1 <0>        -0.1190 
     23 C23        11.6609   39.2178   31.4318 C.ar      1 <0>         0.3320 
     24 C24        10.2955   42.2188   32.4809 C.ar      1 <0>        -0.1150 
     25 C25        10.9003   44.9496   33.0579 C.ar      1 <0>         0.0850 
     26 C26        11.5931   43.9204   33.7251 C.ar      1 <0>         0.0850 
     27 C27         7.4099   40.9037   35.2028 C.3       1 <0>         0.1550 
     28 C28         9.8648   40.8045   32.2194 C.3       1 <0>         0.1775 
     29 C29        14.2788   37.6866   28.3727 C.2       1 <0>         0.8270 
     30 C30         7.1915   42.3405   35.7003 C.2       1 <0>         0.7000 
     31 C31         8.5772   40.5826   33.0313 C.2       1 <0>         0.5000 
     32 N1         13.9100   37.6666   27.0833 N.pl3     1 <0>        -0.8850 
     33 N2         15.5264   37.2897   28.6585 N.pl3     1 <0>        -0.8850 
     34 N3         10.8788   39.7734   32.4583 N.pl3     1 <0>        -0.7025 
     35 N4          8.5733   40.9355   34.3231 N.am      1 <0>        -0.5000 
     36 O1          6.0671   42.8502   35.4830 O.co2     1 <0>        -0.8000 
     37 O2          8.1495   42.9001   36.2786 O.co2     1 <0>        -0.8000 
     38 O3          7.5969   40.0870   32.4759 O.2       1 <0>        -0.5000 
     39 O4         12.4721   44.3202   34.7059 O.3       1 <0>        -0.2850 
     40 O5         11.2010   46.2468   33.4040 O.3       1 <0>        -0.2850 
     41 H1         14.0807   43.8967   35.8777 H         1 <0>         0.0300 
     42 H2         13.4308   42.4861   35.0825 H         1 <0>         0.0300 
     43 H3         14.3642   43.6674   34.1568 H         1 <0>         0.0300 
     44 H4         10.2210   51.1137   29.7325 H         1 <0>         0.1150 
     45 H5          8.2276   37.3126   39.2386 H         1 <0>         0.1150 
     46 H6         12.1131   49.5064   29.8834 H         1 <0>         0.1150 
     47 H7          8.2808   50.8814   31.2745 H         1 <0>         0.1150 
     48 H8          7.1780   39.5127   39.7484 H         1 <0>         0.1150 
     49 H9          8.9196   36.7944   36.9069 H         1 <0>         0.1150 
     50 H10        12.0658   47.6537   31.4971 H         1 <0>         0.1150 
     51 H11         8.2520   49.0687   32.9667 H         1 <0>         0.1150 
     52 H12         6.7997   41.1452   37.9846 H         1 <0>         0.1150 
     53 H13         8.5449   38.4203   35.1096 H         1 <0>         0.1150 
     54 H14        14.4130   37.1980   31.0927 H         1 <0>         0.1290 
     55 H15        12.0666   39.1952   28.0671 H         1 <0>         0.1290 
     56 H16        13.0037   38.2245   32.8140 H         1 <0>         0.1410 
     57 H17        10.5928   40.0559   29.7007 H         1 <0>         0.1410 
     58 H18         8.9041   43.0562   31.0502 H         1 <0>         0.1150 
     59 H19         9.4351   45.3985   31.5226 H         1 <0>         0.1150 
     60 H20        11.7852   41.7759   33.9686 H         1 <0>         0.1150 
     61 H21         9.1451   46.6837   33.4747 H         1 <0>         0.0300 
     62 H22        10.2056   47.6864   34.4071 H         1 <0>         0.0300 
     63 H23         6.5122   40.5890   34.6680 H         1 <0>         0.0600 
     64 H24         9.5013   40.7549   31.2001 H         1 <0>         0.0600 
     65 H25        14.4916   37.2237   26.3729 H         1 <0>         0.4455 
     66 H26        12.9824   37.9813   26.8174 H         1 <0>         0.4455 
     67 H27        16.0725   36.8188   27.9520 H         1 <0>         0.4455 
     68 H28        15.8754   37.3396   29.6034 H         1 <0>         0.4455 
     69 H29        11.1638   39.6161   33.4128 H         1 <0>         0.3800 
     70 H30         9.3696   41.4436   34.6800 H         1 <0>         0.3000 
@<TRIPOS>BOND
     1    1   39 1    
     2    1   41 1    
     3    1   42 1    
     4    1   43 1    
     5    2    4 ar   
     6    2    5 ar   
     7    2   44 1    
     8    3    6 ar   
     9    3    7 ar   
    10    3   45 1    
    11    4    8 ar   
    12    4   46 1    
    13    5    9 ar   
    14    5   47 1    
    15    6   10 ar   
    16    6   48 1    
    17    7   11 ar   
    18    7   49 1    
    19    8   20 ar   
    20    8   50 1    
    21    9   20 ar   
    22    9   51 1    
    23   10   21 ar   
    24   10   52 1    
    25   11   21 ar   
    26   11   53 1    
    27   12   14 ar   
    28   12   22 ar   
    29   12   54 1    
    30   13   15 ar   
    31   13   22 ar   
    32   13   55 1    
    33   14   23 ar   
    34   14   56 1    
    35   15   23 ar   
    36   15   57 1    
    37   16   17 ar   
    38   16   24 ar   
    39   16   58 1    
    40   17   25 ar   
    41   17   59 1    
    42   18   24 ar   
    43   18   26 ar   
    44   18   60 1    
    45   19   20 1    
    46   19   40 1    
    47   19   61 1    
    48   19   62 1    
    49   21   27 1    
    50   22   29 1    
    51   23   34 1    
    52   24   28 1    
    53   25   26 ar   
    54   25   40 1    
    55   26   39 1    
    56   27   30 1    
    57   27   35 1    
    58   27   63 1    
    59   28   31 1    
    60   28   34 1    
    61   28   64 1    
    62   29   32 1    
    63   29   33 2    
    64   30   36 1    
    65   30   37 2    
    66   31   35 am   BACKBONE|DICT|INTERRES
    67   31   38 2    
    68   32   65 1    
    69   32   66 1    
    70   33   67 1    
    71   33   68 1    
    72   34   69 1    
    73   35   70 1    
@<TRIPOS>SUBSTRUCTURE
     1 <0>         1 GROUP             0       ****    0 ROOT    
@<TRIPOS>MOLECULE
fa7-ligand
70   73    1
SMALL
USER_CHARGES


@<TRIPOS>ATOM
      1 C1         13.6527   43.5477   34.8831 C.3       1 <0>         0.1100 
      2 C2         11.0603   50.0524   29.9322 C.ar      1 <0>        -0.1150 
      3 C3          8.0871   38.0699   38.4953 C.ar      1 <0>        -0.1150 
      4 C4         10.4670   48.8172   29.6041 C.ar      1 <0>        -0.1150 
      5 C5         11.3619   50.3487   31.2742 C.ar      1 <0>        -0.1150 
      6 C6          7.4915   39.3123   38.7596 C.ar      1 <0>        -0.1150 
      7 C7          8.4575   37.7467   37.1801 C.ar      1 <0>        -0.1150 
      8 C8         10.1803   47.8790   30.6149 C.ar      1 <0>        -0.1150 
      9 C9         11.0650   49.4125   32.2835 C.ar      1 <0>        -0.1150 
     10 C10         7.2666   40.2233   37.7102 C.ar      1 <0>        -0.1150 
     11 C11         8.2332   38.6676   36.1397 C.ar      1 <0>        -0.1150 
     12 C12        13.7874   38.0049   30.9324 C.ar      1 <0>        -0.0900 
     13 C13        12.0784   38.4415   29.2782 C.ar      1 <0>        -0.0900 
     14 C14        12.9190   38.4866   31.9333 C.ar      1 <0>        -0.1060 
     15 C15        11.2268   38.9431   30.2657 C.ar      1 <0>        -0.1060 
     16 C16         9.6765   43.1507   31.7871 C.ar      1 <0>        -0.1150 
     17 C17         9.9326   44.5053   32.0331 C.ar      1 <0>        -0.1150 
     18 C18        11.3140   42.5272   33.4470 C.ar      1 <0>        -0.1150 
     19 C19        10.1274   47.1953   33.0805 C.3       1 <0>         0.1818 
     20 C20        10.4755   48.1712   31.9645 C.ar      1 <0>        -0.0418 
     21 C21         7.6433   39.9386   36.3670 C.ar      1 <0>        -0.1150 
     22 C22        13.3938   38.0354   29.5753 C.ar      1 <0>        -0.1190 
     23 C23        11.6665   39.0500   31.6008 C.ar      1 <0>         0.3320 
     24 C24        10.3317   42.1299   32.5059 C.ar      1 <0>        -0.1150 
     25 C25        10.8707   44.8958   33.0129 C.ar      1 <0>         0.0850 
     26 C26        11.5855   43.8948   33.7103 C.ar      1 <0>         0.0850 
     27 C27         7.4040   40.8688   35.1939 C.3       1 <0>         0.1550 
     28 C28         9.9215   40.7091   32.2685 C.3       1 <0>         0.1775 
     29 C29        14.3241   37.6866   28.4851 C.2       1 <0>         0.8270 
     30 C30         7.2002   42.3149   35.6769 C.2       1 <0>         0.7000 
     31 C31         8.5965   40.5315   33.0284 C.2       1 <0>         0.5000 
     32 N1         15.5794   37.2865   28.7270 N.pl3     1 <0>        -0.8850 
     33 N2         13.9391   37.6866   27.1989 N.pl3     1 <0>        -0.8850 
     34 N3         10.9167   39.6868   32.6045 N.pl3     1 <0>        -0.7025 
     35 N4          8.5743   40.8747   34.3228 N.am      1 <0>        -0.5000 
     36 O1          6.0691   42.8193   35.4836 O.co2     1 <0>        -0.8000 
     37 O2          8.1690   42.8862   36.2251 O.co2     1 <0>        -0.8000 
     38 O3          7.6130   40.0866   32.4373 O.2       1 <0>        -0.5000 
     39 O4         12.4697   44.3098   34.6829 O.3       1 <0>        -0.2850 
     40 O5         11.1390   46.2153   33.3168 O.3       1 <0>        -0.2850 
     41 H1         14.1828   43.9563   35.7436 H         1 <0>         0.0300 
     42 H2         13.4782   42.4913   35.0835 H         1 <0>         0.0300 
     43 H3         14.3159   43.6392   34.0236 H         1 <0>         0.0300 
     44 H4         11.2802   50.7714   29.1569 H         1 <0>         0.1150 
     45 H5          8.2613   37.3623   39.2940 H         1 <0>         0.1150 
     46 H6         10.2321   48.5881   28.5750 H         1 <0>         0.1150 
     47 H7         11.8083   51.2981   31.5306 H         1 <0>         0.1150 
     48 H8          7.2058   39.5692   39.7694 H         1 <0>         0.1150 
     49 H9          8.9094   36.7880   36.9679 H         1 <0>         0.1150 
     50 H10         9.7181   46.9464   30.3372 H         1 <0>         0.1150 
     51 H11        11.2667   49.6575   33.3144 H         1 <0>         0.1150 
     52 H12         6.8019   41.1620   37.9718 H         1 <0>         0.1150 
     53 H13         8.5146   38.3763   35.1384 H         1 <0>         0.1150 
     54 H14        14.7711   37.6689   31.2243 H         1 <0>         0.1290 
     55 H15        11.6917   38.4181   28.2835 H         1 <0>         0.1290 
     56 H16        13.2680   38.5133   32.9563 H         1 <0>         0.1410 
     57 H17        10.2466   39.2518   29.9425 H         1 <0>         0.1410 
     58 H18         8.9274   42.8926   31.0528 H         1 <0>         0.1150 
     59 H19         9.3728   45.2244   31.4623 H         1 <0>         0.1150 
     60 H20        11.8211   41.7626   34.0118 H         1 <0>         0.1150 
     61 H21         9.1301   46.7843   32.9268 H         1 <0>         0.0300 
     62 H22        10.0334   47.7520   34.0099 H         1 <0>         0.0300 
     63 H23         6.5103   40.5521   34.6537 H         1 <0>         0.0600 
     64 H24         9.6320   40.6506   31.2256 H         1 <0>         0.0600 
     65 H25        16.1220   36.8752   27.9813 H         1 <0>         0.4455 
     66 H26        15.9199   37.2227   29.6731 H         1 <0>         0.4455 
     67 H27        14.5073   37.2500   26.4757 H         1 <0>         0.4455 
     68 H28        13.0162   38.0218   26.9458 H         1 <0>         0.4455 
     69 H29        11.3929   39.8240   33.4833 H         1 <0>         0.3800 
     70 H30         9.3832   41.3492   34.6960 H         1 <0>         0.3000 
@<TRIPOS>BOND
     1    1   39 1    
     2    1   41 1    
     3    1   42 1    
     4    1   43 1    
     5    2    4 ar   
     6    2    5 ar   
     7    2   44 1    
     8    3    6 ar   
     9    3    7 ar   
    10    3   45 1    
    11    4    8 ar   
    12    4   46 1    
    13    5    9 ar   
    14    5   47 1    
    15    6   10 ar   
    16    6   48 1    
    17    7   11 ar   
    18    7   49 1    
    19    8   20 ar   
    20    8   50 1    
    21    9   20 ar   
    22    9   51 1    
    23   10   21 ar   
    24   10   52 1    
    25   11   21 ar   
    26   11   53 1    
    27   12   14 ar   
    28   12   22 ar   
    29   12   54 1    
    30   13   15 ar   
    31   13   22 ar   
    32   13   55 1    
    33   14   23 ar   
    34   14   56 1    
    35   15   23 ar   
    36   15   57 1    
    37   16   17 ar   
    38   16   24 ar   
    39   16   58 1    
    40   17   25 ar   
    41   17   59 1    
    42   18   24 ar   
    43   18   26 ar   
    44   18   60 1    
    45   19   20 1    
    46   19   40 1    
    47   19   61 1    
    48   19   62 1    
    49   21   27 1    
    50   22   29 1    
    51   23   34 1    
    52   24   28 1    
    53   25   26 ar   
    54   25   40 1    
    55   26   39 1    
    56   27   30 1    
    57   27   35 1    
    58   27   63 1    
    59   28   31 1    
    60   28   34 1    
    61   28   64 1    
    62   29   32 1    
    63   29   33 2    
    64   30   36 1    
    65   30   37 2    
    66   31   35 am   BACKBONE|DICT|INTERRES
    67   31   38 2    
    68   32   65 1    
    69   32   66 1    
    70   33   67 1    
    71   33   68 1    
    72   34   69 1    
    73   35   70 1    
@<TRIPOS>SUBSTRUCTURE
     1 <0>         1 GROUP             0       ****    0 ROOT    
@<TRIPOS>MOLECULE
fa7-ligand
70   73    1
SMALL
USER_CHARGES


@<TRIPOS>ATOM
      1 C1          8.3543   44.2611   37.1892 C.3       1 <0>         0.1100 
      2 C2         10.8673   47.9572   31.6436 C.ar      1 <0>        -0.1150 
      3 C3          7.2694   39.3195   39.3529 C.ar      1 <0>        -0.1150 
      4 C4          9.7832   48.1131   30.7592 C.ar      1 <0>        -0.1150 
      5 C5         10.6380   47.5559   32.9742 C.ar      1 <0>        -0.1150 
      6 C6          7.2219   40.5071   38.6024 C.ar      1 <0>        -0.1150 
      7 C7          7.0416   38.0872   38.7153 C.ar      1 <0>        -0.1150 
      8 C8          8.4697   47.8694   31.2057 C.ar      1 <0>        -0.1150 
      9 C9          9.3255   47.3115   33.4204 C.ar      1 <0>        -0.1150 
     10 C10         6.9369   40.4575   37.2240 C.ar      1 <0>        -0.1150 
     11 C11         6.7579   38.0491   37.3374 C.ar      1 <0>        -0.1150 
     12 C12        12.7941   38.4865   31.6899 C.ar      1 <0>        -0.0900 
     13 C13        11.5028   39.2920   29.7904 C.ar      1 <0>        -0.0900 
     14 C14        12.0666   39.3363   32.5420 C.ar      1 <0>        -0.1060 
     15 C15        10.7845   40.1513   30.6493 C.ar      1 <0>        -0.1060 
     16 C16         7.8042   43.1381   32.2631 C.ar      1 <0>        -0.1150 
     17 C17         7.2188   44.3945   32.4785 C.ar      1 <0>        -0.1150 
     18 C18         8.4288   43.0197   34.5962 C.ar      1 <0>        -0.1150 
     19 C19         6.8067   47.2050   33.0071 C.3       1 <0>         0.1818 
     20 C20         8.2339   47.4622   32.5362 C.ar      1 <0>        -0.0418 
     21 C21         6.6980   39.2282   36.5585 C.ar      1 <0>        -0.1150 
     22 C22        12.5461   38.4809   30.2964 C.ar      1 <0>        -0.1190 
     23 C23        11.0833   40.1998   32.0293 C.ar      1 <0>         0.3320 
     24 C24         8.4193   42.4182   33.3096 C.ar      1 <0>        -0.1150 
     25 C25         7.2177   44.9678   33.7683 C.ar      1 <0>         0.0850 
     26 C26         7.7962   44.2647   34.8426 C.ar      1 <0>         0.0850 
     27 C27         6.4184   39.1304   35.0857 C.3       1 <0>         0.1550 
     28 C28         9.0185   41.0770   33.0039 C.3       1 <0>         0.1775 
     29 C29        13.4005   37.6803   29.3994 C.2       1 <0>         0.8270 
     30 C30         4.9251   39.4301   34.8663 C.2       1 <0>         0.7000 
     31 C31         8.4931   40.0863   34.0656 C.2       1 <0>         0.5000 
     32 N1         14.3632   36.8867   29.8838 N.pl3     1 <0>        -0.8850 
     33 N2         13.2667   37.6866   28.0668 N.pl3     1 <0>        -0.8850 
     34 N3         10.4722   41.1216   32.8917 N.pl3     1 <0>        -0.7025 
     35 N4          7.1767   40.1092   34.3193 N.am      1 <0>        -0.5000 
     36 O1          4.4577   40.4715   35.3891 O.co2     1 <0>        -0.8000 
     37 O2          4.2948   38.6610   34.1037 O.co2     1 <0>        -0.8000 
     38 O3          9.2665   39.2995   34.6188 O.2       1 <0>        -0.5000 
     39 O4          7.7102   44.8650   36.0811 O.3       1 <0>        -0.2850 
     40 O5          6.7057   46.2197   34.0327 O.3       1 <0>        -0.2850 
     41 H1          8.0667   44.8013   38.0903 H         1 <0>         0.0300 
     42 H2          8.0580   43.2237   37.3351 H         1 <0>         0.0300 
     43 H3          9.4368   44.3226   37.0834 H         1 <0>         0.0300 
     44 H4         11.8738   48.1497   31.3028 H         1 <0>         0.1150 
     45 H5          7.4926   39.3517   40.4096 H         1 <0>         0.1150 
     46 H6          9.9585   48.4225   29.7395 H         1 <0>         0.1150 
     47 H7         11.4663   47.4440   33.6590 H         1 <0>         0.1150 
     48 H8          7.4082   41.4557   39.0851 H         1 <0>         0.1150 
     49 H9          7.0912   37.1665   39.2790 H         1 <0>         0.1150 
     50 H10         7.6431   47.9924   30.5214 H         1 <0>         0.1150 
     51 H11         9.1604   47.0169   34.4471 H         1 <0>         0.1150 
     52 H12         6.8955   41.3779   36.6623 H         1 <0>         0.1150 
     53 H13         6.5926   37.0904   36.8677 H         1 <0>         0.1150 
     54 H14        13.5733   37.8831   32.1303 H         1 <0>         0.1290 
     55 H15        11.2749   39.3126   28.7336 H         1 <0>         0.1290 
     56 H16        12.3166   39.3577   33.5913 H         1 <0>         0.1410 
     57 H17        10.0366   40.8092   30.2311 H         1 <0>         0.1410 
     58 H18         7.7866   42.7252   31.2650 H         1 <0>         0.1150 
     59 H19         6.7743   44.9056   31.6392 H         1 <0>         0.1150 
     60 H20         8.9079   42.4886   35.4028 H         1 <0>         0.1150 
     61 H21         6.1575   46.9547   32.1676 H         1 <0>         0.0300 
     62 H22         6.4200   48.1401   33.4131 H         1 <0>         0.0300 
     63 H23         6.6452   38.1315   34.7075 H         1 <0>         0.0600 
     64 H24         8.6034   40.7141   32.0629 H         1 <0>         0.0600 
     65 H25        14.8449   36.2392   29.2697 H         1 <0>         0.4455 
     66 H26        14.5165   36.8140   30.8771 H         1 <0>         0.4455 
     67 H27        13.8399   37.0750   27.4976 H         1 <0>         0.4455 
     68 H28        12.5337   38.2208   27.6096 H         1 <0>         0.4455 
     69 H29        10.9165   41.1911   33.7959 H         1 <0>         0.3800 
     70 H30         6.6186   40.8179   33.8649 H         1 <0>         0.3000 
@<TRIPOS>BOND
     1    1   39 1    
     2    1   41 1    
     3    1   42 1    
     4    1   43 1    
     5    2    4 ar   
     6    2    5 ar   
     7    2   44 1    
     8    3    6 ar   
     9    3    7 ar   
    10    3   45 1    
    11    4    8 ar   
    12    4   46 1    
    13    5    9 ar   
    14    5   47 1    
    15    6   10 ar   
    16    6   48 1    
    17    7   11 ar   
    18    7   49 1    
    19    8   20 ar   
    20    8   50 1    
    21    9   20 ar   
    22    9   51 1    
    23   10   21 ar   
    24   10   52 1    
    25   11   21 ar   
    26   11   53 1    
    27   12   14 ar   
    28   12   22 ar   
    29   12   54 1    
    30   13   15 ar   
    31   13   22 ar   
    32   13   55 1    
    33   14   23 ar   
    34   14   56 1    
    35   15   23 ar   
    36   15   57 1    
    37   16   17 ar   
    38   16   24 ar   
    39   16   58 1    
    40   17   25 ar   
    41   17   59 1    
    42   18   24 ar   
    43   18   26 ar   
    44   18   60 1    
    45   19   20 1    
    46   19   40 1    
    47   19   61 1    
    48   19   62 1    
    49   21   27 1    
    50   22   29 1    
    51   23   34 1    
    52   24   28 1    
    53   25   26 ar   
    54   25   40 1    
    55   26   39 1    
    56   27   30 1    
    57   27   35 1    
    58   27   63 1    
    59   28   31 1    
    60   28   34 1    
    61   28   64 1    
    62   29   32 1    
    63   29   33 2    
    64   30   36 1    
    65   30   37 2    
    66   31   35 am   BACKBONE|DICT|INTERRES
    67   31   38 2    
    68   32   65 1    
    69   32   66 1    
    70   33   67 1    
    71   33   68 1    
    72   34   69 1    
    73   35   70 1    
@<TRIPOS>SUBSTRUCTURE
     1 <0>         1 GROUP             0       ****    0 ROOT    
@<TRIPOS>MOLECULE
fa7-ligand
70   73    1
SMALL
USER_CHARGES


@<TRIPOS>ATOM
      1 C1          4.3545   43.0951   33.3933 C.3       1 <0>         0.1100 
      2 C2          4.4922   48.5425   39.3944 C.ar      1 <0>        -0.1150 
      3 C3          7.6648   39.3912   39.4810 C.ar      1 <0>        -0.1150 
      4 C4          4.0297   47.9063   38.2262 C.ar      1 <0>        -0.1150 
      5 C5          5.8076   48.3179   39.8434 C.ar      1 <0>        -0.1150 
      6 C6          7.3346   40.4791   38.6551 C.ar      1 <0>        -0.1150 
      7 C7          7.7559   38.1002   38.9312 C.ar      1 <0>        -0.1150 
      8 C8          4.8798   47.0403   37.5103 C.ar      1 <0>        -0.1150 
      9 C9          6.6557   47.4534   39.1263 C.ar      1 <0>        -0.1150 
     10 C10         7.0928   40.2677   37.2856 C.ar      1 <0>        -0.1150 
     11 C11         7.4892   37.8960   37.5666 C.ar      1 <0>        -0.1150 
     12 C12        12.7691   38.4865   31.6751 C.ar      1 <0>        -0.0900 
     13 C13        11.4798   39.2982   29.7747 C.ar      1 <0>        -0.0900 
     14 C14        12.0661   39.3629   32.5197 C.ar      1 <0>        -0.1060 
     15 C15        10.7749   40.1748   30.6315 C.ar      1 <0>        -0.1060 
     16 C16         9.2070   43.0071   34.8330 C.ar      1 <0>        -0.1150 
     17 C17         8.5606   43.9734   35.6259 C.ar      1 <0>        -0.1150 
     18 C18         7.1387   42.5805   33.6645 C.ar      1 <0>        -0.1150 
     19 C19         7.1344   45.8770   37.2104 C.3       1 <0>         0.1818 
     20 C20         6.1966   46.8023   37.9641 C.ar      1 <0>        -0.0418 
     21 C21         7.1441   38.9691   36.7150 C.ar      1 <0>        -0.1150 
     22 C22        12.5197   38.4809   30.2829 C.ar      1 <0>        -0.1190 
     23 C23        11.0954   40.2412   32.0052 C.ar      1 <0>         0.3320 
     24 C24         8.5001   42.2494   33.8706 C.ar      1 <0>        -0.1150 
     25 C25         7.1728   44.2072   35.4790 C.ar      1 <0>         0.0850 
     26 C26         6.4584   43.5141   34.4823 C.ar      1 <0>         0.0850 
     27 C27         6.8690   38.7010   35.2680 C.3       1 <0>         0.1550 
     28 C28         9.1008   41.0635   33.1649 C.3       1 <0>         0.1775 
     29 C29        13.3804   37.6799   29.3915 C.2       1 <0>         0.8270 
     30 C30         5.3428   38.8024   35.0859 C.2       1 <0>         0.7000 
     31 C31         8.7717   39.8973   34.1318 C.2       1 <0>         0.5000 
     32 N1         14.3394   36.8865   29.8834 N.pl3     1 <0>        -0.8850 
     33 N2         13.2641   37.6867   28.0578 N.pl3     1 <0>        -0.8850 
     34 N3         10.5247   41.1959   32.8611 N.pl3     1 <0>        -0.7025 
     35 N4          7.4765   39.7213   34.4342 N.am      1 <0>        -0.5000 
     36 O1          4.8046   39.9208   35.2821 O.co2     1 <0>        -0.8000 
     37 O2          4.7449   37.7808   34.6815 O.co2     1 <0>        -0.8000 
     38 O3          9.6659   39.1771   34.5811 O.2       1 <0>        -0.5000 
     39 O4          5.1037   43.7671   34.3953 O.3       1 <0>        -0.2850 
     40 O5          6.4444   45.0681   36.2704 O.3       1 <0>        -0.2850 
     41 H1          3.3151   43.4193   33.4439 H         1 <0>         0.0300 
     42 H2          4.7238   43.3307   32.3952 H         1 <0>         0.0300 
     43 H3          4.3690   42.0148   33.5396 H         1 <0>         0.0300 
     44 H4          3.8412   49.2081   39.9429 H         1 <0>         0.1150 
     45 H5          7.8538   39.5505   40.5325 H         1 <0>         0.1150 
     46 H6          3.0237   48.0862   37.8762 H         1 <0>         0.1150 
     47 H7          6.1670   48.8089   40.7358 H         1 <0>         0.1150 
     48 H8          7.2841   41.4757   39.0695 H         1 <0>         0.1150 
     49 H9          8.0373   37.2608   39.5482 H         1 <0>         0.1150 
     50 H10         4.5138   46.5663   36.6115 H         1 <0>         0.1150 
     51 H11         7.6670   47.2888   39.4738 H         1 <0>         0.1150 
     52 H12         6.8490   41.1155   36.6618 H         1 <0>         0.1150 
     53 H13         7.5582   36.8935   37.1683 H         1 <0>         0.1150 
     54 H14        13.5402   37.8755   32.1192 H         1 <0>         0.1290 
     55 H15        11.2512   39.3138   28.7172 H         1 <0>         0.1290 
     56 H16        12.3268   39.3931   33.5663 H         1 <0>         0.1410 
     57 H17        10.0292   40.8375   30.2169 H         1 <0>         0.1410 
     58 H18        10.2531   42.8129   35.0134 H         1 <0>         0.1150 
     59 H19         9.1453   44.4920   36.3708 H         1 <0>         0.1150 
     60 H20         6.5993   42.0233   32.9141 H         1 <0>         0.1150 
     61 H21         7.6556   45.2490   37.9349 H         1 <0>         0.0300 
     62 H22         7.8730   46.4866   36.6894 H         1 <0>         0.0300 
     63 H23         7.2198   37.7138   34.9611 H         1 <0>         0.0600 
     64 H24         8.5677   40.8814   32.2304 H         1 <0>         0.0600 
     65 H25        14.8277   36.2408   29.2726 H         1 <0>         0.4455 
     66 H26        14.4840   36.8117   30.8777 H         1 <0>         0.4455 
     67 H27        13.8418   37.0736   27.4945 H         1 <0>         0.4455 
     68 H28        12.5359   38.2206   27.5923 H         1 <0>         0.4455 
     69 H29        11.0554   41.3026   33.7128 H         1 <0>         0.3800 
     70 H30         6.8133   40.3875   34.0658 H         1 <0>         0.3000 
@<TRIPOS>BOND
     1    1   39 1    
     2    1   41 1    
     3    1   42 1    
     4    1   43 1    
     5    2    4 ar   
     6    2    5 ar   
     7    2   44 1    
     8    3    6 ar   
     9    3    7 ar   
    10    3   45 1    
    11    4    8 ar   
    12    4   46 1    
    13    5    9 ar   
    14    5   47 1    
    15    6   10 ar   
    16    6   48 1    
    17    7   11 ar   
    18    7   49 1    
    19    8   20 ar   
    20    8   50 1    
    21    9   20 ar   
    22    9   51 1    
    23   10   21 ar   
    24   10   52 1    
    25   11   21 ar   
    26   11   53 1    
    27   12   14 ar   
    28   12   22 ar   
    29   12   54 1    
    30   13   15 ar   
    31   13   22 ar   
    32   13   55 1    
    33   14   23 ar   
    34   14   56 1    
    35   15   23 ar   
    36   15   57 1    
    37   16   17 ar   
    38   16   24 ar   
    39   16   58 1    
    40   17   25 ar   
    41   17   59 1    
    42   18   24 ar   
    43   18   26 ar   
    44   18   60 1    
    45   19   20 1    
    46   19   40 1    
    47   19   61 1    
    48   19   62 1    
    49   21   27 1    
    50   22   29 1    
    51   23   34 1    
    52   24   28 1    
    53   25   26 ar   
    54   25   40 1    
    55   26   39 1    
    56   27   30 1    
    57   27   35 1    
    58   27   63 1    
    59   28   31 1    
    60   28   34 1    
    61   28   64 1    
    62   29   32 1    
    63   29   33 2    
    64   30   36 1    
    65   30   37 2    
    66   31   35 am   BACKBONE|DICT|INTERRES
    67   31   38 2    
    68   32   65 1    
    69   32   66 1    
    70   33   67 1    
    71   33   68 1    
    72   34   69 1    
    73   35   70 1    
@<TRIPOS>SUBSTRUCTURE
     1 <0>         1 GROUP             0       ****    0 ROOT    
