@<TRIPOS>MOLECULE
fabp4-ligand
61   65    1
SMALL
USER_CHARGES


@<TRIPOS>ATOM
      1 C1          7.6885   10.5766   18.3595 C.3       1 <0>        -0.1800 
      2 C2          6.5674    7.0136   23.2827 C.ar      1 <0>        -0.1150 
      3 C3          1.6045    4.4867   18.8439 C.ar      1 <0>        -0.1150 
      4 C4          7.3867    7.7648   22.4271 C.ar      1 <0>        -0.1150 
      5 C5          5.2214    6.7932   22.9480 C.ar      1 <0>        -0.1150 
      6 C6          2.9080    4.5359   19.3671 C.ar      1 <0>        -0.1150 
      7 C7          1.0205    5.6556   18.3222 C.ar      1 <0>        -0.1150 
      8 C8          4.8964   12.5712   14.6174 C.ar      1 <0>        -0.1150 
      9 C9          4.6976   13.0560   15.9226 C.ar      1 <0>        -0.1150 
     10 C10         3.0206    7.2143   14.0140 C.ar      1 <0>        -0.1150 
     11 C11         6.8694    8.2484   21.2108 C.ar      1 <0>        -0.1150 
     12 C12         4.6870    7.3777   21.7868 C.ar      1 <0>        -0.1150 
     13 C13         3.6083    5.7567   19.3773 C.ar      1 <0>        -0.1150 
     14 C14         1.7248    6.8747   18.3521 C.ar      1 <0>        -0.1150 
     15 C15         4.8926   11.1849   14.3805 C.ar      1 <0>        -0.1150 
     16 C16         4.5661   12.1688   16.9913 C.ar      1 <0>        -0.1150 
     17 C17         3.5062    8.5239   14.1493 C.ar      1 <0>        -0.1150 
     18 C18         3.4644    6.2133   14.8842 C.ar      1 <0>        -0.1150 
     19 C19         5.0865    7.7641   15.8229 C.ar      1 <0>        -0.1150 
     20 C20         6.4616   10.7918   19.2580 C.3       1 <0>        -0.0050 
     21 C21         6.1576    5.4223   17.1885 C.3       1 <0>         0.1400 
     22 C22         5.5002    8.0972   20.8808 C.ar      1 <0>         0.0000 
     23 C23         3.0312    6.9410   18.8933 C.ar      1 <0>        -0.0454 
     24 C24         4.4922    8.8347   15.1089 C.ar      1 <0>         0.0000 
     25 C25         4.5185    6.4635   15.7719 C.ar      1 <0>         0.0850 
     26 C26         4.7151   10.2641   15.4382 C.ar      1 <0>         0.0000 
     27 C27         4.6087   10.7828   16.7676 C.ar      1 <0>         0.0731 
     28 C28         5.3371    9.8234   18.9933 C.ar      1 <0>         0.0560 
     29 C29         4.9186    8.6879   19.6499 C.ar      1 <0>        -0.1700 
     30 C30         3.8200    8.1871   18.8705 C.ar      1 <0>         0.3834 
     31 C31         7.2273    5.1620   16.1381 C.2       1 <0>         0.6000 
     32 N1          3.5036    9.0465   17.9258 N.2       1 <0>        -0.5310 
     33 N2          4.5013    9.9402   17.8929 N.pl3     1 <0>         0.1189 
     34 O1          7.0204    4.2133   15.3484 O.co2     1 <0>        -0.8000 
     35 O2          8.2203    5.9155   16.1431 O.co2     1 <0>        -0.8000 
     36 O3          4.8762    5.4076   16.5813 O.3       1 <0>        -0.2850 
     37 H1          8.4809   11.2844   18.6076 H         1 <0>         0.0600 
     38 H2          8.0928    9.5705   18.4675 H         1 <0>         0.0600 
     39 H3          7.4381   10.7179   17.3084 H         1 <0>         0.0600 
     40 H4          6.9576    6.6568   24.2212 H         1 <0>         0.1150 
     41 H5          1.0630    3.5520   18.8285 H         1 <0>         0.1150 
     42 H6          8.4091    7.9681   22.7073 H         1 <0>         0.1150 
     43 H7          4.5819    6.2388   23.6190 H         1 <0>         0.1150 
     44 H8          3.3732    3.6400   19.7484 H         1 <0>         0.1150 
     45 H9          0.0245    5.6196   17.9062 H         1 <0>         0.1150 
     46 H10         5.0195   13.2575   13.7935 H         1 <0>         0.1150 
     47 H11         4.6563   14.1146   16.1455 H         1 <0>         0.1150 
     48 H12         2.2440    6.9918   13.2981 H         1 <0>         0.1150 
     49 H13         7.5479    8.7609   20.5491 H         1 <0>         0.1150 
     50 H14         3.6317    7.2592   21.6022 H         1 <0>         0.1150 
     51 H15         4.6203    5.8134   19.7294 H         1 <0>         0.1150 
     52 H16         1.2559    7.7587   17.9431 H         1 <0>         0.1150 
     53 H17         4.9865   10.8257   13.3654 H         1 <0>         0.1150 
     54 H18         4.4232   12.5705   17.9839 H         1 <0>         0.1150 
     55 H19         3.0489    9.3082   13.5642 H         1 <0>         0.1150 
     56 H20         3.0209    5.2307   14.8500 H         1 <0>         0.1150 
     57 H21         5.8659    7.9944   16.5316 H         1 <0>         0.1150 
     58 H22         6.1132   11.8138   19.1334 H         1 <0>         0.0600 
     59 H23         6.7536   10.7566   20.3050 H         1 <0>         0.0600 
     60 H24         6.1904    4.5995   17.8993 H         1 <0>         0.0300 
     61 H25         6.3503    6.3252   17.7661 H         1 <0>         0.0300 
@<TRIPOS>BOND
     1    1   20 1    
     2    1   37 1    
     3    1   38 1    
     4    1   39 1    
     5    2    4 ar   
     6    2    5 ar   
     7    2   40 1    
     8    3    6 ar   
     9    3    7 ar   
    10    3   41 1    
    11    4   11 ar   
    12    4   42 1    
    13    5   12 ar   
    14    5   43 1    
    15    6   13 ar   
    16    6   44 1    
    17    7   14 ar   
    18    7   45 1    
    19    8    9 ar   
    20    8   15 ar   
    21    8   46 1    
    22    9   16 ar   
    23    9   47 1    
    24   10   17 ar   
    25   10   18 ar   
    26   10   48 1    
    27   11   22 ar   
    28   11   49 1    
    29   12   22 ar   
    30   12   50 1    
    31   13   23 ar   
    32   13   51 1    
    33   14   23 ar   
    34   14   52 1    
    35   15   26 ar   
    36   15   53 1    
    37   16   27 ar   
    38   16   54 1    
    39   17   24 ar   
    40   17   55 1    
    41   18   25 ar   
    42   18   56 1    
    43   19   24 ar   
    44   19   25 ar   
    45   19   57 1    
    46   20   28 1    
    47   20   58 1    
    48   20   59 1    
    49   21   31 1    
    50   21   36 1    
    51   21   60 1    
    52   21   61 1    
    53   22   29 1    
    54   23   30 1    
    55   24   26 1    
    56   25   36 1    
    57   26   27 ar   
    58   27   33 1    
    59   28   29 ar   
    60   28   33 ar   
    61   29   30 ar   
    62   30   32 ar   
    63   31   34 1    
    64   31   35 2    
    65   32   33 ar   
@<TRIPOS>SUBSTRUCTURE
     1 <0>         1 GROUP             0       ****    0 ROOT    
@<TRIPOS>MOLECULE
fabp4-ligand
61   65    1
SMALL
USER_CHARGES


@<TRIPOS>ATOM
      1 C1          2.4919    6.3789   14.9025 C.3       1 <0>        -0.1800 
      2 C2          1.4129    3.1733   19.0788 C.ar      1 <0>        -0.1150 
      3 C3          5.6786    6.9746   22.8008 C.ar      1 <0>        -0.1150 
      4 C4          2.7848    3.4022   19.2971 C.ar      1 <0>        -0.1150 
      5 C5          0.6082    4.1982   18.5468 C.ar      1 <0>        -0.1150 
      6 C6          6.3639    7.8031   21.8921 C.ar      1 <0>        -0.1150 
      7 C7          4.4446    6.4033   22.4364 C.ar      1 <0>        -0.1150 
      8 C8          3.3003   12.4680   14.8654 C.ar      1 <0>        -0.1150 
      9 C9          2.2114   11.5811   14.9278 C.ar      1 <0>        -0.1150 
     10 C10         7.9794   11.5856   18.0183 C.ar      1 <0>        -0.1150 
     11 C11         3.3490    4.6541   18.9828 C.ar      1 <0>        -0.1150 
     12 C12         1.1755    5.4486   18.2375 C.ar      1 <0>        -0.1150 
     13 C13         5.8155    8.0585   20.6203 C.ar      1 <0>        -0.1150 
     14 C14         3.8968    6.6601   21.1645 C.ar      1 <0>        -0.1150 
     15 C15         4.4802   12.1857   15.5794 C.ar      1 <0>        -0.1150 
     16 C16         2.3056   10.4138   15.7062 C.ar      1 <0>        -0.1150 
     17 C17         6.7414   11.8304   17.3944 C.ar      1 <0>        -0.1150 
     18 C18         8.3626   10.2704   18.3410 C.ar      1 <0>        -0.1150 
     19 C19         6.2450    9.4595   17.4676 C.ar      1 <0>        -0.1150 
     20 C20         1.9652    7.4753   15.8351 C.3       1 <0>        -0.0050 
     21 C21         6.7531    6.9067   18.1370 C.3       1 <0>         0.1400 
     22 C22         2.5496    5.6892   18.4519 C.ar      1 <0>         0.0000 
     23 C23         4.5779    7.4883   20.2457 C.ar      1 <0>        -0.0454 
     24 C24         5.8619   10.7677   17.0951 C.ar      1 <0>         0.0000 
     25 C25         7.4943    9.1897   18.0565 C.ar      1 <0>         0.0850 
     26 C26         4.5957   11.0215   16.3720 C.ar      1 <0>         0.0000 
     27 C27         3.4847   10.1307   16.4280 C.ar      1 <0>         0.0731 
     28 C28         2.8580    7.7525   17.0091 C.ar      1 <0>         0.0560 
     29 C29         3.1276    6.9981   18.1165 C.ar      1 <0>        -0.1700 
     30 C30         4.0025    7.7769   18.9280 C.ar      1 <0>         0.3834 
     31 C31         6.8977    6.1723   16.8018 C.2       1 <0>         0.6000 
     32 N1          4.2746    8.9302   18.3365 N.2       1 <0>        -0.5310 
     33 N2          3.5405    8.9457   17.1989 N.pl3     1 <0>         0.1189 
     34 O1          7.5118    6.7466   15.8748 O.co2     1 <0>        -0.8000 
     35 O2          6.3976    5.0278   16.7356 O.co2     1 <0>        -0.8000 
     36 O3          7.7902    7.8677   18.3031 O.3       1 <0>        -0.2850 
     37 H1          1.8278    6.2434   14.0490 H         1 <0>         0.0600 
     38 H2          3.4801    6.6346   14.5179 H         1 <0>         0.0600 
     39 H3          2.5675    5.4207   15.4163 H         1 <0>         0.0600 
     40 H4          0.9778    2.2136   19.3151 H         1 <0>         0.1150 
     41 H5          6.0968    6.7816   23.7776 H         1 <0>         0.1150 
     42 H6          3.4048    2.6172   19.7036 H         1 <0>         0.1150 
     43 H7         -0.4442    4.0300   18.3685 H         1 <0>         0.1150 
     44 H8          7.3074    8.2483   22.1710 H         1 <0>         0.1150 
     45 H9          3.9150    5.7710   23.1335 H         1 <0>         0.1150 
     46 H10         3.2331   13.3651   14.2678 H         1 <0>         0.1150 
     47 H11         1.3068   11.7934   14.3774 H         1 <0>         0.1150 
     48 H12         8.6459   12.4075   18.2335 H         1 <0>         0.1150 
     49 H13         4.4024    4.8218   19.1526 H         1 <0>         0.1150 
     50 H14         0.5481    6.2259   17.8230 H         1 <0>         0.1150 
     51 H15         6.3431    8.7057   19.9340 H         1 <0>         0.1150 
     52 H16         2.9485    6.2181   20.8971 H         1 <0>         0.1150 
     53 H17         5.3081   12.8772   15.5207 H         1 <0>         0.1150 
     54 H18         1.4708    9.7294   15.7441 H         1 <0>         0.1150 
     55 H19         6.4764   12.8417   17.1230 H         1 <0>         0.1150 
     56 H20         9.3252   10.1123   18.8031 H         1 <0>         0.1150 
     57 H21         5.5923    8.6284   17.2530 H         1 <0>         0.1150 
     58 H22         0.9676    7.2093   16.1816 H         1 <0>         0.0600 
     59 H23         1.8345    8.3888   15.2558 H         1 <0>         0.0600 
     60 H24         5.7793    7.3974   18.1691 H         1 <0>         0.0300 
     61 H25         6.7893    6.1613   18.9331 H         1 <0>         0.0300 
@<TRIPOS>BOND
     1    1   20 1    
     2    1   37 1    
     3    1   38 1    
     4    1   39 1    
     5    2    4 ar   
     6    2    5 ar   
     7    2   40 1    
     8    3    6 ar   
     9    3    7 ar   
    10    3   41 1    
    11    4   11 ar   
    12    4   42 1    
    13    5   12 ar   
    14    5   43 1    
    15    6   13 ar   
    16    6   44 1    
    17    7   14 ar   
    18    7   45 1    
    19    8    9 ar   
    20    8   15 ar   
    21    8   46 1    
    22    9   16 ar   
    23    9   47 1    
    24   10   17 ar   
    25   10   18 ar   
    26   10   48 1    
    27   11   22 ar   
    28   11   49 1    
    29   12   22 ar   
    30   12   50 1    
    31   13   23 ar   
    32   13   51 1    
    33   14   23 ar   
    34   14   52 1    
    35   15   26 ar   
    36   15   53 1    
    37   16   27 ar   
    38   16   54 1    
    39   17   24 ar   
    40   17   55 1    
    41   18   25 ar   
    42   18   56 1    
    43   19   24 ar   
    44   19   25 ar   
    45   19   57 1    
    46   20   28 1    
    47   20   58 1    
    48   20   59 1    
    49   21   31 1    
    50   21   36 1    
    51   21   60 1    
    52   21   61 1    
    53   22   29 1    
    54   23   30 1    
    55   24   26 1    
    56   25   36 1    
    57   26   27 ar   
    58   27   33 1    
    59   28   29 ar   
    60   28   33 ar   
    61   29   30 ar   
    62   30   32 ar   
    63   31   34 1    
    64   31   35 2    
    65   32   33 ar   
@<TRIPOS>SUBSTRUCTURE
     1 <0>         1 GROUP             0       ****    0 ROOT    
@<TRIPOS>MOLECULE
fabp4-ligand
61   65    1
SMALL
USER_CHARGES


@<TRIPOS>ATOM
      1 C1          3.0941    6.8224   22.7438 C.3       1 <0>        -0.1800 
      2 C2         -0.1008    4.6133   18.1480 C.ar      1 <0>        -0.1150 
      3 C3          3.6229    8.9057   14.2390 C.ar      1 <0>        -0.1150 
      4 C4         -0.0228    5.9704   17.7936 C.ar      1 <0>        -0.1150 
      5 C5          0.9751    3.9101   18.7105 C.ar      1 <0>        -0.1150 
      6 C6          3.4206    7.5491   14.5563 C.ar      1 <0>        -0.1150 
      7 C7          3.9922    9.8149   15.2476 C.ar      1 <0>        -0.1150 
      8 C8          8.2206    8.2133   23.0316 C.ar      1 <0>        -0.1150 
      9 C9          7.2789    7.2346   23.3047 C.ar      1 <0>        -0.1150 
     10 C10         6.7476   11.5406   18.4396 C.ar      1 <0>        -0.1150 
     11 C11         1.1524    6.6608   18.0955 C.ar      1 <0>        -0.1150 
     12 C12         2.1617    4.5905   18.9480 C.ar      1 <0>        -0.1150 
     13 C13         3.5957    7.1002   15.8802 C.ar      1 <0>        -0.1150 
     14 C14         4.1645    9.3648   16.5707 C.ar      1 <0>        -0.1150 
     15 C15         8.2206    8.9045   21.8143 C.ar      1 <0>        -0.1150 
     16 C16         6.3194    6.9400   22.3342 C.ar      1 <0>        -0.1150 
     17 C17         6.7690   10.8285   19.6515 C.ar      1 <0>        -0.1150 
     18 C18         7.2485   10.9413   17.2702 C.ar      1 <0>        -0.1150 
     19 C19         7.8922    8.9722   18.5384 C.ar      1 <0>        -0.1150 
     20 C20         3.4514    5.9244   21.5554 C.3       1 <0>        -0.0050 
     21 C21         7.6264    7.7062   15.9407 C.3       1 <0>         0.1400 
     22 C22         2.2248    5.9707   18.6922 C.ar      1 <0>         0.0000 
     23 C23         3.9737    8.0041   16.8976 C.ar      1 <0>        -0.0454 
     24 C24         7.3165    9.5302   19.6921 C.ar      1 <0>         0.0000 
     25 C25         7.7891    9.6385   17.3086 C.ar      1 <0>         0.0850 
     26 C26         7.2072    8.6914   20.8832 C.ar      1 <0>         0.0000 
     27 C27         6.2091    7.6916   21.1362 C.ar      1 <0>         0.0731 
     28 C28         3.9780    6.6440   20.3337 C.ar      1 <0>         0.0560 
     29 C29         3.4123    6.6765   19.0918 C.ar      1 <0>        -0.1700 
     30 C30         4.1600    7.5498   18.2805 C.ar      1 <0>         0.3834 
     31 C31         7.0206    7.5893   14.5392 C.2       1 <0>         0.6000 
     32 N1          5.1825    7.9598   18.9751 N.2       1 <0>        -0.5310 
     33 N2          5.1408    7.4133   20.2168 N.pl3     1 <0>         0.1189 
     34 O1          7.0206    8.6133   13.8156 O.co2     1 <0>        -0.8000 
     35 O2          6.6206    6.4572   14.1956 O.co2     1 <0>        -0.8000 
     36 O3          8.1628    9.0133   16.1480 O.3       1 <0>        -0.2850 
     37 H1          2.8653    6.2133   23.6186 H         1 <0>         0.0600 
     38 H2          3.8977    7.5073   22.9964 H         1 <0>         0.0600 
     39 H3          2.2207    7.4378   22.5480 H         1 <0>         0.0600 
     40 H4         -0.9794    4.0197   18.0022 H         1 <0>         0.1150 
     41 H5          3.5058    9.2459   13.2207 H         1 <0>         0.1150 
     42 H6         -0.8621    6.4814   17.3447 H         1 <0>         0.1150 
     43 H7          0.8899    2.8607   18.9507 H         1 <0>         0.1150 
     44 H8          3.1469    6.8508   13.7797 H         1 <0>         0.1150 
     45 H9          4.1525   10.8550   15.0051 H         1 <0>         0.1150 
     46 H10         8.9722    8.4805   23.7480 H         1 <0>         0.1150 
     47 H11         7.3087    6.7135   24.2473 H         1 <0>         0.1150 
     48 H12         6.3055   12.5268   18.3946 H         1 <0>         0.1150 
     49 H13         1.2227    7.7187   17.8869 H         1 <0>         0.1150 
     50 H14         3.0009    4.0667   19.3827 H         1 <0>         0.1150 
     51 H15         3.4515    6.0549   16.1080 H         1 <0>         0.1150 
     52 H16         4.4503   10.0684   17.3386 H         1 <0>         0.1150 
     53 H17         8.9964    9.6316   21.6187 H         1 <0>         0.1150 
     54 H18         5.6718    6.1281   22.5850 H         1 <0>         0.1150 
     55 H19         6.3251   11.2578   20.5372 H         1 <0>         0.1150 
     56 H20         7.1561   11.4701   16.3355 H         1 <0>         0.1150 
     57 H21         8.3000    7.9724   18.5777 H         1 <0>         0.1150 
     58 H22         2.5223    5.4133   21.3190 H         1 <0>         0.0600 
     59 H23         4.1111    5.1049   21.8349 H         1 <0>         0.0600 
     60 H24         6.8450    7.4458   16.6556 H         1 <0>         0.0300 
     61 H25         8.4255    6.9730   16.0522 H         1 <0>         0.0300 
@<TRIPOS>BOND
     1    1   20 1    
     2    1   37 1    
     3    1   38 1    
     4    1   39 1    
     5    2    4 ar   
     6    2    5 ar   
     7    2   40 1    
     8    3    6 ar   
     9    3    7 ar   
    10    3   41 1    
    11    4   11 ar   
    12    4   42 1    
    13    5   12 ar   
    14    5   43 1    
    15    6   13 ar   
    16    6   44 1    
    17    7   14 ar   
    18    7   45 1    
    19    8    9 ar   
    20    8   15 ar   
    21    8   46 1    
    22    9   16 ar   
    23    9   47 1    
    24   10   17 ar   
    25   10   18 ar   
    26   10   48 1    
    27   11   22 ar   
    28   11   49 1    
    29   12   22 ar   
    30   12   50 1    
    31   13   23 ar   
    32   13   51 1    
    33   14   23 ar   
    34   14   52 1    
    35   15   26 ar   
    36   15   53 1    
    37   16   27 ar   
    38   16   54 1    
    39   17   24 ar   
    40   17   55 1    
    41   18   25 ar   
    42   18   56 1    
    43   19   24 ar   
    44   19   25 ar   
    45   19   57 1    
    46   20   28 1    
    47   20   58 1    
    48   20   59 1    
    49   21   31 1    
    50   21   36 1    
    51   21   60 1    
    52   21   61 1    
    53   22   29 1    
    54   23   30 1    
    55   24   26 1    
    56   25   36 1    
    57   26   27 ar   
    58   27   33 1    
    59   28   29 ar   
    60   28   33 ar   
    61   29   30 ar   
    62   30   32 ar   
    63   31   34 1    
    64   31   35 2    
    65   32   33 ar   
@<TRIPOS>SUBSTRUCTURE
     1 <0>         1 GROUP             0       ****    0 ROOT    
@<TRIPOS>MOLECULE
fabp4-ligand
61   65    1
SMALL
USER_CHARGES


@<TRIPOS>ATOM
      1 C1          2.7873    7.0203   15.1995 C.3       1 <0>        -0.1800 
      2 C2          1.3705    3.5328   18.9482 C.ar      1 <0>        -0.1150 
      3 C3          5.5072    6.6132   23.1657 C.ar      1 <0>        -0.1150 
      4 C4          2.7618    3.6377   19.0793 C.ar      1 <0>        -0.1150 
      5 C5          0.6209    4.6393   18.5339 C.ar      1 <0>        -0.1150 
      6 C6          4.2382    6.2149   22.7172 C.ar      1 <0>        -0.1150 
      7 C7          6.3633    7.3645   22.3422 C.ar      1 <0>        -0.1150 
      8 C8          4.1990   13.0982   15.9297 C.ar      1 <0>        -0.1150 
      9 C9          3.3693   12.9519   17.0496 C.ar      1 <0>        -0.1150 
     10 C10         6.4993    8.2791   13.7473 C.ar      1 <0>        -0.1150 
     11 C11         3.3923    4.8676   18.8334 C.ar      1 <0>        -0.1150 
     12 C12         1.2505    5.8742   18.3009 C.ar      1 <0>        -0.1150 
     13 C13         3.8004    6.6137   21.4473 C.ar      1 <0>        -0.1150 
     14 C14         5.9196    7.7677   21.0724 C.ar      1 <0>        -0.1150 
     15 C15         4.9905   12.0250   15.4824 C.ar      1 <0>        -0.1150 
     16 C16         3.2799   11.7066   17.6876 C.ar      1 <0>        -0.1150 
     17 C17         5.8103    9.3976   14.2341 C.ar      1 <0>        -0.1150 
     18 C18         7.0311    7.3373   14.6161 C.ar      1 <0>        -0.1150 
     19 C19         6.4411    8.7599   16.4868 C.ar      1 <0>        -0.1150 
     20 C20         2.3924    8.2152   16.0772 C.3       1 <0>        -0.0050 
     21 C21         6.5904    5.7173   17.2901 C.3       1 <0>         0.1400 
     22 C22         2.6425    6.0086   18.4773 C.ar      1 <0>         0.0000 
     23 C23         4.6270    7.4145   20.6271 C.ar      1 <0>        -0.0454 
     24 C24         5.7409    9.6381   15.6211 C.ar      1 <0>         0.0000 
     25 C25         7.0359    7.5843   15.9917 C.ar      1 <0>         0.0850 
     26 C26         4.9276   10.7650   16.1211 C.ar      1 <0>         0.0000 
     27 C27         4.0237   10.6145   17.2052 C.ar      1 <0>         0.0731 
     28 C28         3.1305    8.2609   17.3847 C.ar      1 <0>         0.0560 
     29 C29         3.2780    7.3297   18.3760 C.ar      1 <0>        -0.1700 
     30 C30         4.1408    7.9192   19.3457 C.ar      1 <0>         0.3834 
     31 C31         6.0587    4.7864   16.1877 C.2       1 <0>         0.6000 
     32 N1          4.4236    9.1667   19.0217 N.2       1 <0>        -0.5310 
     33 N2          3.8341    9.3702   17.8291 N.pl3     1 <0>         0.1189 
     34 O1          4.8222    4.6134   16.1474 O.co2     1 <0>        -0.8000 
     35 O2          6.8732    4.2221   15.4193 O.co2     1 <0>        -0.8000 
     36 O3          7.5676    6.6395   16.8241 O.3       1 <0>        -0.2850 
     37 H1          2.2395    7.0290   14.2577 H         1 <0>         0.0600 
     38 H2          3.8514    7.0402   14.9667 H         1 <0>         0.0600 
     39 H3          2.5720    6.0708   15.6872 H         1 <0>         0.0600 
     40 H4          0.8678    2.6124   19.1631 H         1 <0>         0.1150 
     41 H5          5.8201    6.3301   24.1515 H         1 <0>         0.1150 
     42 H6          3.3450    2.7785   19.3758 H         1 <0>         0.1150 
     43 H7         -0.4484    4.5500   18.4146 H         1 <0>         0.1150 
     44 H8          3.5962    5.6254   23.3551 H         1 <0>         0.1150 
     45 H9          7.3410    7.6535   22.6966 H         1 <0>         0.1150 
     46 H10         4.2214   14.0519   15.4287 H         1 <0>         0.1150 
     47 H11         2.7932   13.7915   17.4102 H         1 <0>         0.1150 
     48 H12         6.6198    8.1030   12.6947 H         1 <0>         0.1150 
     49 H13         4.4619    4.9367   18.9471 H         1 <0>         0.1150 
     50 H14         0.6518    6.7297   18.0265 H         1 <0>         0.1150 
     51 H15         2.8047    6.3405   21.1306 H         1 <0>         0.1150 
     52 H16         6.5653    8.3696   20.4498 H         1 <0>         0.1150 
     53 H17         5.6407   12.1763   14.6337 H         1 <0>         0.1150 
     54 H18         2.6223   11.5798   18.5343 H         1 <0>         0.1150 
     55 H19         5.3253   10.0637   13.5342 H         1 <0>         0.1150 
     56 H20         7.4358    6.4208   14.2190 H         1 <0>         0.1150 
     57 H21         6.4641    8.9375   17.5499 H         1 <0>         0.1150 
     58 H22         1.3195    8.1874   16.2654 H         1 <0>         0.0600 
     59 H23         2.5686    9.1267   15.5073 H         1 <0>         0.0600 
     60 H24         5.7692    6.2670   17.7446 H         1 <0>         0.0300 
     61 H25         7.0213    5.1046   18.0757 H         1 <0>         0.0300 
@<TRIPOS>BOND
     1    1   20 1    
     2    1   37 1    
     3    1   38 1    
     4    1   39 1    
     5    2    4 ar   
     6    2    5 ar   
     7    2   40 1    
     8    3    6 ar   
     9    3    7 ar   
    10    3   41 1    
    11    4   11 ar   
    12    4   42 1    
    13    5   12 ar   
    14    5   43 1    
    15    6   13 ar   
    16    6   44 1    
    17    7   14 ar   
    18    7   45 1    
    19    8    9 ar   
    20    8   15 ar   
    21    8   46 1    
    22    9   16 ar   
    23    9   47 1    
    24   10   17 ar   
    25   10   18 ar   
    26   10   48 1    
    27   11   22 ar   
    28   11   49 1    
    29   12   22 ar   
    30   12   50 1    
    31   13   23 ar   
    32   13   51 1    
    33   14   23 ar   
    34   14   52 1    
    35   15   26 ar   
    36   15   53 1    
    37   16   27 ar   
    38   16   54 1    
    39   17   24 ar   
    40   17   55 1    
    41   18   25 ar   
    42   18   56 1    
    43   19   24 ar   
    44   19   25 ar   
    45   19   57 1    
    46   20   28 1    
    47   20   58 1    
    48   20   59 1    
    49   21   31 1    
    50   21   36 1    
    51   21   60 1    
    52   21   61 1    
    53   22   29 1    
    54   23   30 1    
    55   24   26 1    
    56   25   36 1    
    57   26   27 ar   
    58   27   33 1    
    59   28   29 ar   
    60   28   33 ar   
    61   29   30 ar   
    62   30   32 ar   
    63   31   34 1    
    64   31   35 2    
    65   32   33 ar   
@<TRIPOS>SUBSTRUCTURE
     1 <0>         1 GROUP             0       ****    0 ROOT    
