@<TRIPOS>MOLECULE
fak1-ligand
53   56    1
SMALL
USER_CHARGES


@<TRIPOS>ATOM
      1 C1          6.8397    1.6291    8.3100 C.3       1 <0>         0.0222 
      2 C2          6.2344    4.1198   10.7458 C.3       1 <0>        -0.5305 
      3 C3          5.6400    5.2409    5.2893 C.ar      1 <0>        -0.4470 
      4 C4          6.9988    4.8930    5.2104 C.ar      1 <0>         0.2270 
      5 C5         11.5774    0.9400    4.3071 C.2       1 <0>        -0.1150 
      6 C6         11.0948    0.0930    3.3661 C.2       1 <0>        -0.1183 
      7 C7          4.9097    4.8260    6.4159 C.ar      1 <0>         0.4730 
      8 C8         13.8902    0.7626    3.5301 C.2       1 <0>        -0.1150 
      9 C9         13.5582    5.0780    7.2416 C.ar      1 <0>         0.6530 
     10 C10        14.0601   -0.8580    1.5837 C.2       1 <0>        -0.1717 
     11 C11         9.0586    3.7935    6.1639 C.3       1 <0>         0.2430 
     12 C12        13.0135    1.2931    4.4195 C.2       1 <0>         0.0180 
     13 C13         7.5880    4.1621    6.2557 C.ar      1 <0>        -0.4550 
     14 C14        12.0409   -0.5059    2.4113 C.2       1 <0>         0.3963 
     15 C15        13.4282   -0.1492    2.5058 C.2       1 <0>        -0.0033 
     16 C16        12.2200    5.5167    7.1543 C.ar      1 <0>        -0.6070 
     17 C17        11.3362    4.6762    6.4373 C.ar      1 <0>         0.8640 
     18 C18         6.7655    3.7850    7.3450 C.ar      1 <0>         0.6850 
     19 C19        13.0672    3.2277    6.0101 C.ar      1 <0>         1.0420 
     20 C20        13.0399   -1.6481    0.9237 C.2       1 <0>         0.4017 
     21 C21        11.7697    6.7929    7.8457 C.3       1 <0>         0.7150 
     22 N1          5.4542    4.1086    7.4195 N.ar      1 <0>        -0.6780 
     23 N2         13.9768    3.9260    6.6802 N.ar      1 <0>        -0.8390 
     24 N3         11.7868    3.5526    5.8436 N.ar      1 <0>        -0.8390 
     25 N4         11.8082   -1.3461    1.4931 N.am      1 <0>        -0.5122 
     26 N5          9.9546    4.9181    6.4108 N.pl3     1 <0>        -0.7800 
     27 N6         13.5429    2.0619    5.4471 N.pl3     1 <0>        -0.5717 
     28 N7          7.2721    3.0192    8.3986 N.pl3     1 <0>        -0.4955 
     29 O1         13.2417   -2.4450    0.0112 O.2       1 <0>        -0.2225 
     30 O2          8.5930    4.8480    9.6366 O.2       1 <0>        -0.4680 
     31 O3          8.3971    2.5083   10.6484 O.2       1 <0>        -0.4680 
     32 F1         12.7926    7.4425    8.3975 F         1 <0>        -0.2000 
     33 F2         11.1877    7.6038    6.9630 F         1 <0>        -0.2000 
     34 F3         10.9024    6.4929    8.8104 F         1 <0>        -0.2000 
     35 S1          7.8027    3.6416    9.9267 S.o2      1 <0>         0.9349 
     36 H1          5.8792    1.5046    8.8100 H         1 <0>         0.0733 
     37 H2          6.7312    1.2970    7.2755 H         1 <0>         0.0733 
     38 H3          7.5607    0.9656    8.7874 H         1 <0>         0.0733 
     39 H4          6.4451    4.4928   11.7463 H         1 <0>         0.1950 
     40 H5          5.5773    3.2541   10.8100 H         1 <0>         0.1950 
     41 H6          5.7408    4.8931   10.1597 H         1 <0>         0.1950 
     42 H7          5.1766    5.8140    4.5018 H         1 <0>         0.1550 
     43 H8          7.5881    5.1935    4.3567 H         1 <0>         0.0650 
     44 H9         10.8680    1.3556    5.0063 H         1 <0>         0.1150 
     45 H10        10.0498   -0.1687    3.2787 H         1 <0>         0.1150 
     46 H11         3.8631    5.0740    6.5127 H         1 <0>         0.0120 
     47 H12        14.9489    0.9632    3.6114 H         1 <0>         0.1150 
     48 H13        14.3010    5.6341    7.7907 H         1 <0>         0.0110 
     49 H14        15.1234   -0.8808    1.3959 H         1 <0>         0.1150 
     50 H15         9.2933    2.9817    6.8525 H         1 <0>         0.0600 
     51 H16         9.2431    3.4061    5.1606 H         1 <0>         0.0600 
     52 H17         9.6013    5.6526    7.0067 H         1 <0>         0.3800 
     53 H18        14.5258    1.9039    5.6183 H         1 <0>         0.3537 
@<TRIPOS>BOND
     1    1   28 1    
     2    1   36 1    
     3    1   37 1    
     4    1   38 1    
     5    2   35 1    
     6    2   39 1    
     7    2   40 1    
     8    2   41 1    
     9    3    4 ar   
    10    3    7 ar   
    11    3   42 1    
    12    4   13 ar   
    13    4   43 1    
    14    5    6 2    
    15    5   12 1    
    16    5   44 1    
    17    6   14 1    
    18    6   45 1    
    19    7   22 ar   
    20    7   46 1    
    21    8   12 2    
    22    8   15 1    
    23    8   47 1    
    24    9   16 ar   
    25    9   23 ar   
    26    9   48 1    
    27   10   15 2    
    28   10   20 1    
    29   10   49 1    
    30   11   13 1    
    31   11   26 1    
    32   11   50 1    
    33   11   51 1    
    34   12   27 1    
    35   13   18 ar   
    36   14   15 1    
    37   14   25 2    
    38   16   17 ar   
    39   16   21 1    
    40   17   24 ar   
    41   17   26 1    
    42   18   22 ar   
    43   18   28 1    
    44   19   23 ar   
    45   19   24 ar   
    46   19   27 1    
    47   20   25 am   BACKBONE|DICT|INTERRES
    48   20   29 2    
    49   21   32 1    
    50   21   33 1    
    51   21   34 1    
    52   26   52 1    
    53   27   53 1    
    54   28   35 1    
    55   30   35 2    
    56   31   35 2    
@<TRIPOS>SUBSTRUCTURE
     1 <0>         1 GROUP             0       ****    0 ROOT    
@<TRIPOS>MOLECULE
fak1-ligand
53   56    1
SMALL
USER_CHARGES


@<TRIPOS>ATOM
      1 C1          6.8596    1.6235    8.3066 C.3       1 <0>         0.0222 
      2 C2          6.2298    4.1132   10.7461 C.3       1 <0>        -0.5305 
      3 C3          5.6430    5.2558    5.3034 C.ar      1 <0>        -0.4470 
      4 C4          6.9971    4.8930    5.2109 C.ar      1 <0>         0.2270 
      5 C5         13.9767    0.8607    3.3764 C.2       1 <0>        -0.1150 
      6 C6         13.6493    0.0716    2.3298 C.2       1 <0>        -0.1183 
      7 C7          4.9180    4.8439    6.4347 C.ar      1 <0>         0.4730 
      8 C8         11.7239    0.8931    4.3153 C.2       1 <0>        -0.1150 
      9 C9         13.5528    5.0610    7.2240 C.ar      1 <0>         0.6530 
     10 C10        10.1621   -0.5239    2.8768 C.2       1 <0>        -0.1717 
     11 C11         9.0534    3.7693    6.1450 C.3       1 <0>         0.2430 
     12 C12        13.0230    1.2931    4.4111 C.2       1 <0>         0.0180 
     13 C13         7.5868    4.1507    6.2485 C.ar      1 <0>        -0.4550 
     14 C14        12.2599   -0.3765    2.2118 C.2       1 <0>         0.3963 
     15 C15        11.3148    0.0376    3.2128 C.2       1 <0>        -0.0033 
     16 C16        12.2146    5.4982    7.1248 C.ar      1 <0>        -0.6070 
     17 C17        11.3344    4.6499    6.4120 C.ar      1 <0>         0.8640 
     18 C18         6.7707    3.7816    7.3455 C.ar      1 <0>         0.6850 
     19 C19        13.0667    3.2002    6.0090 C.ar      1 <0>         1.0420 
     20 C20        10.4093   -1.2553    1.6475 C.2       1 <0>         0.4017 
     21 C21        11.7597    6.7821    7.7994 C.3       1 <0>         0.7150 
     22 N1          5.4637    4.1186    7.4319 N.ar      1 <0>        -0.6780 
     23 N2         13.9760    3.9048    6.6743 N.ar      1 <0>        -0.8390 
     24 N3         11.7862    3.5198    5.8340 N.ar      1 <0>        -0.8390 
     25 N4         11.7522   -1.1069    1.3106 N.am      1 <0>        -0.5122 
     26 N5          9.9542    4.8938    6.3706 N.pl3     1 <0>        -0.7800 
     27 N6         13.5329    2.0192    5.4758 N.pl3     1 <0>        -0.5717 
     28 N7          7.2801    3.0173    8.3994 N.pl3     1 <0>        -0.4955 
     29 O1          9.5709   -1.8927    1.0145 O.2       1 <0>        -0.2225 
     30 O2          8.5878    4.8522    9.6442 O.2       1 <0>        -0.4680 
     31 O3          8.3995    2.5114   10.6544 O.2       1 <0>        -0.4680 
     32 F1         11.1770    7.5807    6.9056 F         1 <0>        -0.2000 
     33 F2         10.8914    6.4923    8.7662 F         1 <0>        -0.2000 
     34 F3         12.7792    7.4417    8.3448 F         1 <0>        -0.2000 
     35 S1          7.8022    3.6419    9.9308 S.o2      1 <0>         0.9349 
     36 H1          5.8883    1.4938    8.7855 H         1 <0>         0.0733 
     37 H2          6.7749    1.2861    7.2711 H         1 <0>         0.0733 
     38 H3          7.5752    0.9657    8.8014 H         1 <0>         0.0733 
     39 H4          6.4369    4.4881   11.7468 H         1 <0>         0.1950 
     40 H5          5.5769    3.2443   10.8110 H         1 <0>         0.1950 
     41 H6          5.7334    4.8836   10.1584 H         1 <0>         0.1950 
     42 H7          5.1765    5.8367    4.5230 H         1 <0>         0.1550 
     43 H8          7.5823    5.1908    4.3533 H         1 <0>         0.0650 
     44 H9         15.0072    1.1714    3.4619 H         1 <0>         0.1150 
     45 H10        14.3556   -0.2559    1.5819 H         1 <0>         0.1150 
     46 H11         3.8744    5.1018    6.5412 H         1 <0>         0.0120 
     47 H12        11.0030    1.1572    5.0754 H         1 <0>         0.1150 
     48 H13        14.2924    5.6243    7.7704 H         1 <0>         0.0110 
     49 H14         9.2168   -0.4332    3.3934 H         1 <0>         0.1150 
     50 H15         9.2909    2.9652    6.8414 H         1 <0>         0.0600 
     51 H16         9.2278    3.3690    5.1448 H         1 <0>         0.0600 
     52 H17         9.6000    5.6441    6.9455 H         1 <0>         0.3800 
     53 H18        14.5164    1.8645    5.6469 H         1 <0>         0.3537 
@<TRIPOS>BOND
     1    1   28 1    
     2    1   36 1    
     3    1   37 1    
     4    1   38 1    
     5    2   35 1    
     6    2   39 1    
     7    2   40 1    
     8    2   41 1    
     9    3    4 ar   
    10    3    7 ar   
    11    3   42 1    
    12    4   13 ar   
    13    4   43 1    
    14    5    6 2    
    15    5   12 1    
    16    5   44 1    
    17    6   14 1    
    18    6   45 1    
    19    7   22 ar   
    20    7   46 1    
    21    8   12 2    
    22    8   15 1    
    23    8   47 1    
    24    9   16 ar   
    25    9   23 ar   
    26    9   48 1    
    27   10   15 2    
    28   10   20 1    
    29   10   49 1    
    30   11   13 1    
    31   11   26 1    
    32   11   50 1    
    33   11   51 1    
    34   12   27 1    
    35   13   18 ar   
    36   14   15 1    
    37   14   25 2    
    38   16   17 ar   
    39   16   21 1    
    40   17   24 ar   
    41   17   26 1    
    42   18   22 ar   
    43   18   28 1    
    44   19   23 ar   
    45   19   24 ar   
    46   19   27 1    
    47   20   25 am   BACKBONE|DICT|INTERRES
    48   20   29 2    
    49   21   32 1    
    50   21   33 1    
    51   21   34 1    
    52   26   52 1    
    53   27   53 1    
    54   28   35 1    
    55   30   35 2    
    56   31   35 2    
@<TRIPOS>SUBSTRUCTURE
     1 <0>         1 GROUP             0       ****    0 ROOT    
@<TRIPOS>MOLECULE
fak1-ligand
53   56    1
SMALL
USER_CHARGES


@<TRIPOS>ATOM
      1 C1          6.4186    2.0934    5.8549 C.3       1 <0>         0.0222 
      2 C2          3.5479    4.5207    6.7986 C.3       1 <0>        -0.5305 
      3 C3          7.9478    4.1452   10.0590 C.ar      1 <0>        -0.4470 
      4 C4          8.7179    4.3031    8.8933 C.ar      1 <0>         0.2270 
      5 C5         11.3170    0.9404    4.5161 C.2       1 <0>        -0.1150 
      6 C6         10.7716    0.0931    3.6113 C.2       1 <0>        -0.1183 
      7 C7          6.6041    3.7573    9.9242 C.ar      1 <0>         0.4730 
      8 C8         13.5657    0.8037    3.5552 C.2       1 <0>        -0.1150 
      9 C9         13.5954    5.0759    7.2554 C.ar      1 <0>         0.6530 
     10 C10        13.5882   -0.7566    1.5543 C.2       1 <0>        -0.1717 
     11 C11         8.9195    4.2821    6.3374 C.3       1 <0>         0.2430 
     12 C12        12.7517    1.2931    4.5215 C.2       1 <0>         0.0180 
     13 C13         8.1231    4.0930    7.6301 C.ar      1 <0>        -0.4550 
     14 C14        11.6469   -0.4812    2.5787 C.2       1 <0>         0.3963 
     15 C15        13.0311   -0.0937    2.5547 C.2       1 <0>        -0.0033 
     16 C16        12.2961    5.6122    7.2010 C.ar      1 <0>        -0.6070 
     17 C17        11.3447    4.8566    6.4777 C.ar      1 <0>         0.8640 
     18 C18         6.7623    3.6891    7.6090 C.ar      1 <0>         0.6850 
     19 C19        12.9582    3.2843    6.0112 C.ar      1 <0>         1.0420 
     20 C20        12.5280   -1.5532    0.9702 C.2       1 <0>         0.4017 
     21 C21        11.9675    6.9032    7.9318 C.3       1 <0>         0.7150 
     22 N1          6.0258    3.5281    8.7301 N.ar      1 <0>        -0.6780 
     23 N2         13.9303    3.9161    6.6599 N.ar      1 <0>        -0.8390 
     24 N3         11.6938    3.6934    5.8829 N.ar      1 <0>        -0.8390 
     25 N4         11.3511   -1.3092    1.6687 N.am      1 <0>        -0.5122 
     26 N5         10.0034    5.2625    6.4112 N.pl3     1 <0>        -0.7800 
     27 N6         13.3424    2.0622    5.5070 N.pl3     1 <0>        -0.5717 
     28 N7          6.0997    3.4045    6.4103 N.pl3     1 <0>        -0.4955 
     29 O1         12.6610   -2.3075    0.0112 O.2       1 <0>        -0.2225 
     30 O2          4.5023    3.6930    4.4114 O.2       1 <0>        -0.4680 
     31 O3          5.5767    5.7434    5.4993 O.2       1 <0>        -0.4680 
     32 F1         11.5767    7.8335    7.0622 F         1 <0>        -0.2000 
     33 F2         10.9939    6.6811    8.8107 F         1 <0>        -0.2000 
     34 F3         13.0206    7.3655    8.6029 F         1 <0>        -0.2000 
     35 S1          4.9422    4.4225    5.6113 S.o2      1 <0>         0.9349 
     36 H1          7.1277    1.5300    6.4638 H         1 <0>         0.0733 
     37 H2          5.5125    1.4933    5.7700 H         1 <0>         0.0733 
     38 H3          6.8444    2.1977    4.8567 H         1 <0>         0.0733 
     39 H4          2.7520    5.1188    6.3556 H         1 <0>         0.1950 
     40 H5          3.8850    4.9887    7.7235 H         1 <0>         0.1950 
     41 H6          3.1828    3.5166    7.0078 H         1 <0>         0.1950 
     42 H7          8.3723    4.3173   11.0357 H         1 <0>         0.1550 
     43 H8          9.7538    4.5871    8.9766 H         1 <0>         0.0650 
     44 H9         10.6664    1.3602    5.2689 H         1 <0>         0.1150 
     45 H10         9.7239   -0.1724    3.5963 H         1 <0>         0.1150 
     46 H11         5.9794    3.6259   10.7957 H         1 <0>         0.0120 
     47 H12        14.6233    1.0270    3.5572 H         1 <0>         0.1150 
     48 H13        14.3767    5.5659    7.8093 H         1 <0>         0.0110 
     49 H14        14.6271   -0.7407    1.2609 H         1 <0>         0.1150 
     50 H15         9.2716    3.3036    6.0121 H         1 <0>         0.0600 
     51 H16         8.2434    4.6280    5.5550 H         1 <0>         0.0600 
     52 H17         9.7652    6.1545    6.8183 H         1 <0>         0.3800 
     53 H18        14.3243    1.8739    5.6482 H         1 <0>         0.3537 
@<TRIPOS>BOND
     1    1   28 1    
     2    1   36 1    
     3    1   37 1    
     4    1   38 1    
     5    2   35 1    
     6    2   39 1    
     7    2   40 1    
     8    2   41 1    
     9    3    4 ar   
    10    3    7 ar   
    11    3   42 1    
    12    4   13 ar   
    13    4   43 1    
    14    5    6 2    
    15    5   12 1    
    16    5   44 1    
    17    6   14 1    
    18    6   45 1    
    19    7   22 ar   
    20    7   46 1    
    21    8   12 2    
    22    8   15 1    
    23    8   47 1    
    24    9   16 ar   
    25    9   23 ar   
    26    9   48 1    
    27   10   15 2    
    28   10   20 1    
    29   10   49 1    
    30   11   13 1    
    31   11   26 1    
    32   11   50 1    
    33   11   51 1    
    34   12   27 1    
    35   13   18 ar   
    36   14   15 1    
    37   14   25 2    
    38   16   17 ar   
    39   16   21 1    
    40   17   24 ar   
    41   17   26 1    
    42   18   22 ar   
    43   18   28 1    
    44   19   23 ar   
    45   19   24 ar   
    46   19   27 1    
    47   20   25 am   BACKBONE|DICT|INTERRES
    48   20   29 2    
    49   21   32 1    
    50   21   33 1    
    51   21   34 1    
    52   26   52 1    
    53   27   53 1    
    54   28   35 1    
    55   30   35 2    
    56   31   35 2    
@<TRIPOS>SUBSTRUCTURE
     1 <0>         1 GROUP             0       ****    0 ROOT    
