@<TRIPOS>MOLECULE
fgfr1-ligand
32   34    1
SMALL
USER_CHARGES


@<TRIPOS>ATOM
      1 C1          5.5708    2.1086   12.5870 C.3       1 <0>         0.1100 
      2 C2          4.1551    5.1188   15.2322 C.ar      1 <0>        -0.1150 
      3 C3          8.1589    3.5457   22.4735 C.ar      1 <0>        -0.5355 
      4 C4          4.7766    5.2549   16.4885 C.ar      1 <0>        -0.1150 
      5 C5          4.6406    4.1841   14.2980 C.ar      1 <0>        -0.1150 
      6 C6          7.7669    4.0766   21.2306 C.ar      1 <0>        -0.0065 
      7 C7          7.5763    2.3455   22.9237 C.ar      1 <0>         0.3847 
      8 C8          6.3780    3.5302   15.8699 C.ar      1 <0>        -0.1150 
      9 C9          5.5437    2.3728   18.9059 C.ar      1 <0>        -0.0205 
     10 C10         6.5873    4.6091   18.1536 C.3       1 <0>         0.1100 
     11 C11         5.8950    4.4613   16.8100 C.ar      1 <0>        -0.1150 
     12 C12         5.7582    3.3716   14.6133 C.ar      1 <0>         0.0850 
     13 C13         6.8547    3.3524   20.4349 C.ar      1 <0>         0.0033 
     14 C14         6.3124    3.4905   19.1120 C.ar      1 <0>        -0.3549 
     15 C15         6.3783    2.1329   20.9943 C.ar      1 <0>         0.6662 
     16 N1          5.5787    1.5679   20.0263 N.pl3     1 <0>        -0.5442 
     17 N2          6.6732    1.6216   22.2230 N.ar      1 <0>        -0.7065 
     18 O1          6.2901    2.4208   13.7698 O.3       1 <0>        -0.2850 
     19 H1          6.0834    1.3026   12.0640 H         1 <0>         0.0300 
     20 H2          4.5632    1.7613   12.8181 H         1 <0>         0.0300 
     21 H3          5.5198    2.9630   11.9088 H         1 <0>         0.0300 
     22 H4          3.2997    5.7296   14.9822 H         1 <0>         0.1150 
     23 H5          8.8849    4.0631   23.0835 H         1 <0>         0.2045 
     24 H6          4.3890    5.9651   17.2023 H         1 <0>         0.1150 
     25 H7          4.1371    4.1112   13.3455 H         1 <0>         0.1150 
     26 H8          8.1982    4.9954   20.8623 H         1 <0>         0.1538 
     27 H9          7.8498    1.9458   23.8894 H         1 <0>         0.0641 
     28 H10         7.2205    2.9092   16.1259 H         1 <0>         0.1150 
     29 H11         4.9563    2.0792   18.0526 H         1 <0>         0.1859 
     30 H12         7.6594    4.6873   17.9742 H         1 <0>         0.0600 
     31 H13         6.2903    5.5508   18.6078 H         1 <0>         0.0600 
     32 H14         5.0471    0.6975   20.0789 H         1 <0>         0.3906 
@<TRIPOS>BOND
     1    1   18 1    
     2    1   19 1    
     3    1   20 1    
     4    1   21 1    
     5    2    4 ar   
     6    2    5 ar   
     7    2   22 1    
     8    3    6 ar   
     9    3    7 ar   
    10    3   23 1    
    11    4   11 ar   
    12    4   24 1    
    13    5   12 ar   
    14    5   25 1    
    15    6   13 ar   
    16    6   26 1    
    17    7   17 ar   
    18    7   27 1    
    19    8   11 ar   
    20    8   12 ar   
    21    8   28 1    
    22    9   14 ar   
    23    9   16 ar   
    24    9   29 1    
    25   10   11 1    
    26   10   14 1    
    27   10   30 1    
    28   10   31 1    
    29   12   18 1    
    30   13   14 ar   
    31   13   15 ar   
    32   15   16 ar   
    33   15   17 ar   
    34   16   32 1    
@<TRIPOS>SUBSTRUCTURE
     1 <0>         1 GROUP             0       ****    0 ROOT    
@<TRIPOS>MOLECULE
fgfr1-ligand
32   34    1
SMALL
USER_CHARGES


@<TRIPOS>ATOM
      1 C1          5.4026    3.3834   12.1988 C.3       1 <0>         0.1100 
      2 C2          3.9169    5.1555   15.5769 C.ar      1 <0>        -0.1150 
      3 C3          7.9939    3.4734   22.5626 C.ar      1 <0>        -0.5355 
      4 C4          4.6475    5.2223   16.7773 C.ar      1 <0>        -0.1150 
      5 C5          4.4659    4.5096   14.4528 C.ar      1 <0>        -0.1150 
      6 C6          7.7550    4.0239   21.2876 C.ar      1 <0>        -0.0065 
      7 C7          7.3812    2.2496   22.9055 C.ar      1 <0>         0.3847 
      8 C8          6.4745    3.9934   15.7260 C.ar      1 <0>        -0.1150 
      9 C9          5.6141    2.4847   18.7549 C.ar      1 <0>        -0.0205 
     10 C10         6.7251    4.7123   18.1443 C.3       1 <0>         0.1100 
     11 C11         5.9287    4.6398   16.8551 C.ar      1 <0>        -0.1150 
     12 C12         5.7471    3.9245   14.5111 C.ar      1 <0>         0.0850 
     13 C13         6.9097    3.3405   20.3853 C.ar      1 <0>         0.0033 
     14 C14         6.4249    3.5541   19.0468 C.ar      1 <0>        -0.3549 
     15 C15         6.3613    2.1192   20.8665 C.ar      1 <0>         0.6662 
     16 N1          5.5795    1.6287   19.8433 N.pl3     1 <0>        -0.5442 
     17 N2          6.5645    1.5486   22.0880 N.ar      1 <0>        -0.7065 
     18 O1          6.2116    3.3172   13.3643 O.3       1 <0>        -0.2850 
     19 H1          5.8960    2.8483   11.3876 H         1 <0>         0.0300 
     20 H2          4.4310    2.9141   12.3602 H         1 <0>         0.0300 
     21 H3          5.2568    4.4141   11.8729 H         1 <0>         0.0300 
     22 H4          2.9351    5.6014   15.5165 H         1 <0>         0.1150 
     23 H5          8.6365    3.9791   23.2685 H         1 <0>         0.2045 
     24 H6          4.2225    5.7228   17.6351 H         1 <0>         0.1150 
     25 H7          3.8992    4.4645   13.5344 H         1 <0>         0.1150 
     26 H8          8.2120    4.9594   21.0017 H         1 <0>         0.1538 
     27 H9          7.5554    1.8154   23.8791 H         1 <0>         0.0641 
     28 H10         7.4589    3.5604   15.8142 H         1 <0>         0.1150 
     29 H11         5.0536    2.2661   17.8573 H         1 <0>         0.1859 
     30 H12         7.7908    4.7480   17.9146 H         1 <0>         0.0600 
     31 H13         6.4965    5.6545   18.6436 H         1 <0>         0.0600 
     32 H14         5.0459    0.7725   19.8679 H         1 <0>         0.3906 
@<TRIPOS>BOND
     1    1   18 1    
     2    1   19 1    
     3    1   20 1    
     4    1   21 1    
     5    2    4 ar   
     6    2    5 ar   
     7    2   22 1    
     8    3    6 ar   
     9    3    7 ar   
    10    3   23 1    
    11    4   11 ar   
    12    4   24 1    
    13    5   12 ar   
    14    5   25 1    
    15    6   13 ar   
    16    6   26 1    
    17    7   17 ar   
    18    7   27 1    
    19    8   11 ar   
    20    8   12 ar   
    21    8   28 1    
    22    9   14 ar   
    23    9   16 ar   
    24    9   29 1    
    25   10   11 1    
    26   10   14 1    
    27   10   30 1    
    28   10   31 1    
    29   12   18 1    
    30   13   14 ar   
    31   13   15 ar   
    32   15   16 ar   
    33   15   17 ar   
    34   16   32 1    
@<TRIPOS>SUBSTRUCTURE
     1 <0>         1 GROUP             0       ****    0 ROOT    
