@<TRIPOS>MOLECULE
fkb1a-ligand
60   62    1
SMALL
USER_CHARGES


@<TRIPOS>ATOM
      1 C1        -33.5499   35.6973   28.8852 C.3       1 <0>        -0.1800 
      2 C2        -30.5137   47.3217   31.2779 C.3       1 <0>        -0.0650 
      3 C3        -39.3094   38.2079   32.1495 C.ar      1 <0>        -0.1150 
      4 C4        -38.6239   37.8253   33.3164 C.ar      1 <0>        -0.1150 
      5 C5        -38.6374   38.9029   31.1277 C.ar      1 <0>        -0.1150 
      6 C6        -37.2634   38.1474   33.4682 C.ar      1 <0>        -0.1150 
      7 C7        -37.2765   39.2234   31.2759 C.ar      1 <0>        -0.1150 
      8 C8        -30.9351   45.8645   33.3111 C.ar      1 <0>        -0.1150 
      9 C9        -30.6960   44.7988   31.1288 C.ar      1 <0>        -0.1150 
     10 C10       -31.1318   44.6028   33.9048 C.ar      1 <0>        -0.1150 
     11 C11       -30.9114   43.5378   31.7204 C.ar      1 <0>        -0.1150 
     12 C12       -29.0495   41.0091   32.7029 C.3       1 <0>         0.0588 
     13 C13       -28.0783   40.8103   33.8738 C.3       1 <0>         0.0842 
     14 C14       -29.7361   38.8449   34.6327 C.3       1 <0>         0.0842 
     15 C15       -34.8875   36.2225   29.4234 C.3       1 <0>         0.1900 
     16 C16       -35.1095   39.1505   32.5875 C.3       1 <0>        -0.0050 
     17 C17       -30.7191   45.9656   31.9206 C.ar      1 <0>        -0.1150 
     18 C18       -36.5859   38.8411   32.4451 C.ar      1 <0>        -0.1150 
     19 C19       -31.1230   43.4408   33.1095 C.ar      1 <0>         0.1567 
     20 C20       -30.6107   39.2177   33.4070 C.3       1 <0>         0.1321 
     21 C21       -34.1698   37.9246   32.6757 C.3       1 <0>         0.1400 
     22 C22       -32.0460   38.7123   33.6440 C.2       1 <0>         0.5000 
     23 C23       -34.4690   36.7479   31.7304 C.2       1 <0>         0.5100 
     24 N1        -32.7766   38.3561   32.5770 N.am      1 <0>        -0.5000 
     25 N2        -30.4571   40.6638   33.0362 N.pl3     1 <0>        -0.5376 
     26 O1        -32.4864   38.6380   34.7922 O.2       1 <0>        -0.5000 
     27 O2        -34.4957   35.5743   32.1005 O.2       1 <0>        -0.4300 
     28 O3        -32.8391   41.5546   33.6801 O.2       1 <0>        -0.4680 
     29 O4        -30.8888   41.9316   35.2755 O.2       1 <0>        -0.4680 
     30 O5        -34.6678   37.1634   30.4645 O.3       1 <0>        -0.3300 
     31 S1        -27.9714   39.0677   34.3175 S.3       1 <0>        -0.3350 
     32 S2        -31.4172   41.8564   33.9049 S.o2      1 <0>         0.8327 
     33 H1        -33.7109   35.0382   28.0325 H         1 <0>         0.0600 
     34 H2        -32.9076   36.5167   28.5620 H         1 <0>         0.0600 
     35 H3        -33.0091   35.1326   29.6452 H         1 <0>         0.0600 
     36 H4        -31.0044   48.1059   31.8561 H         1 <0>         0.0600 
     37 H5        -29.4495   47.5524   31.2169 H         1 <0>         0.0600 
     38 H6        -30.9283   47.3376   30.2690 H         1 <0>         0.0600 
     39 H7        -40.3570   37.9650   32.0371 H         1 <0>         0.1150 
     40 H8        -39.1428   37.2864   34.0962 H         1 <0>         0.1150 
     41 H9        -39.1682   39.1949   30.2333 H         1 <0>         0.1150 
     42 H10       -36.7402   37.8508   34.3657 H         1 <0>         0.1150 
     43 H11       -36.7657   39.7543   30.4863 H         1 <0>         0.1150 
     44 H12       -30.9561   46.7511   33.9285 H         1 <0>         0.1150 
     45 H13       -30.5362   44.8680   30.0616 H         1 <0>         0.1150 
     46 H14       -31.3070   44.5303   34.9685 H         1 <0>         0.1150 
     47 H15       -30.9227   42.6525   31.1040 H         1 <0>         0.1150 
     48 H16       -28.9664   42.0363   32.3634 H         1 <0>         0.0733 
     49 H17       -28.7294   40.3986   31.8577 H         1 <0>         0.0733 
     50 H18       -28.3824   41.3929   34.7431 H         1 <0>         0.0600 
     51 H19       -27.0821   41.1549   33.5957 H         1 <0>         0.0600 
     52 H20       -30.0103   39.4427   35.5026 H         1 <0>         0.0600 
     53 H21       -29.8871   37.8010   34.9117 H         1 <0>         0.0600 
     54 H22       -35.5219   35.4015   29.7620 H         1 <0>         0.0300 
     55 H23       -35.4292   36.7265   28.6226 H         1 <0>         0.0300 
     56 H24       -34.8047   39.8004   31.7682 H         1 <0>         0.0600 
     57 H25       -34.9876   39.7544   33.4880 H         1 <0>         0.0600 
     58 H26       -30.2348   38.6304   32.5691 H         1 <0>         0.0733 
     59 H27       -34.3164   37.5153   33.6762 H         1 <0>         0.0600 
     60 H28       -32.3979   38.4790   31.6464 H         1 <0>         0.3000 
@<TRIPOS>BOND
     1    1   15 1    
     2    1   33 1    
     3    1   34 1    
     4    1   35 1    
     5    2   17 1    
     6    2   36 1    
     7    2   37 1    
     8    2   38 1    
     9    3    4 ar   
    10    3    5 ar   
    11    3   39 1    
    12    4    6 ar   
    13    4   40 1    
    14    5    7 ar   
    15    5   41 1    
    16    6   18 ar   
    17    6   42 1    
    18    7   18 ar   
    19    7   43 1    
    20    8   10 ar   
    21    8   17 ar   
    22    8   44 1    
    23    9   11 ar   
    24    9   17 ar   
    25    9   45 1    
    26   10   19 ar   
    27   10   46 1    
    28   11   19 ar   
    29   11   47 1    
    30   12   13 1    
    31   12   25 1    
    32   12   48 1    
    33   12   49 1    
    34   13   31 1    
    35   13   50 1    
    36   13   51 1    
    37   14   20 1    
    38   14   31 1    
    39   14   52 1    
    40   14   53 1    
    41   15   30 1    
    42   15   54 1    
    43   15   55 1    
    44   16   18 1    
    45   16   21 1    
    46   16   56 1    
    47   16   57 1    
    48   19   32 1    
    49   20   22 1    
    50   20   25 1    
    51   20   58 1    
    52   21   23 1    
    53   21   24 1    
    54   21   59 1    
    55   22   24 am   BACKBONE|DICT|INTERRES
    56   22   26 2    
    57   23   27 2    
    58   23   30 1    
    59   24   60 1    
    60   25   32 1    
    61   28   32 2    
    62   29   32 2    
@<TRIPOS>SUBSTRUCTURE
     1 <0>         1 GROUP             0       ****    0 ROOT    
@<TRIPOS>MOLECULE
fkb1a-ligand
60   62    1
SMALL
USER_CHARGES


@<TRIPOS>ATOM
      1 C1        -33.1760   35.7938   28.9429 C.3       1 <0>        -0.1800 
      2 C2        -29.9626   46.9260   31.1638 C.3       1 <0>        -0.0650 
      3 C3        -39.3108   38.2194   32.3156 C.ar      1 <0>        -0.1150 
      4 C4        -38.5976   37.6206   33.3686 C.ar      1 <0>        -0.1150 
      5 C5        -38.6866   39.1648   31.4845 C.ar      1 <0>        -0.1150 
      6 C6        -37.2551   37.9720   33.5952 C.ar      1 <0>        -0.1150 
      7 C7        -37.3482   39.5251   31.7112 C.ar      1 <0>        -0.1150 
      8 C8        -30.5476   45.6262   33.2589 C.ar      1 <0>        -0.1150 
      9 C9        -30.5192   44.4524   31.1192 C.ar      1 <0>        -0.1150 
     10 C10       -30.9042   44.4307   33.9128 C.ar      1 <0>        -0.1150 
     11 C11       -30.9095   43.2644   31.7687 C.ar      1 <0>        -0.1150 
     12 C12       -29.0826   40.7813   33.0315 C.3       1 <0>         0.0588 
     13 C13       -28.2030   40.6788   34.2854 C.3       1 <0>         0.0842 
     14 C14       -29.9380   38.7684   35.0655 C.3       1 <0>         0.0842 
     15 C15       -33.8993   35.1988   30.1615 C.3       1 <0>         0.1900 
     16 C16       -35.1420   39.1851   32.9040 C.3       1 <0>        -0.0050 
     17 C17       -30.3508   45.6393   31.8620 C.ar      1 <0>        -0.1150 
     18 C18       -36.6245   38.9125   32.7554 C.ar      1 <0>        -0.1150 
     19 C19       -31.0809   43.2493   33.1668 C.ar      1 <0>         0.1567 
     20 C20       -30.7015   39.0535   33.7455 C.3       1 <0>         0.1321 
     21 C21       -34.2322   37.9548   32.6601 C.3       1 <0>         0.1400 
     22 C22       -32.1534   38.5523   33.8567 C.2       1 <0>         0.5000 
     23 C23       -34.5301   37.1647   31.3686 C.2       1 <0>         0.5100 
     24 N1        -32.8314   38.3681   32.7157 N.am      1 <0>        -0.5000 
     25 N2        -30.5116   40.4704   33.2937 N.pl3     1 <0>        -0.5376 
     26 O1        -32.6555   38.3315   34.9596 O.2       1 <0>        -0.5000 
     27 O2        -35.3109   37.5330   30.4863 O.2       1 <0>        -0.4300 
     28 O3        -32.9102   41.4457   33.7010 O.2       1 <0>        -0.4680 
     29 O4        -31.0845   41.8608   35.4272 O.2       1 <0>        -0.4680 
     30 O5        -33.7833   36.0470   31.2977 O.3       1 <0>        -0.3300 
     31 S1        -28.1510   38.9801   34.8882 S.3       1 <0>        -0.3350 
     32 S2        -31.5037   41.7269   34.0240 S.o2      1 <0>         0.8327 
     33 H1        -33.3107   35.1648   28.0660 H         1 <0>         0.0600 
     34 H2        -33.5531   36.7814   28.6808 H         1 <0>         0.0600 
     35 H3        -32.1104   35.8887   29.1354 H         1 <0>         0.0600 
     36 H4        -30.5223   47.7679   31.5726 H         1 <0>         0.0600 
     37 H5        -28.8986   47.1214   31.2994 H         1 <0>         0.0600 
     38 H6        -30.1689   46.8721   30.0938 H         1 <0>         0.0600 
     39 H7        -40.3431   37.9533   32.1431 H         1 <0>         0.1150 
     40 H8        -39.0820   36.8918   34.0025 H         1 <0>         0.1150 
     41 H9        -39.2365   39.6101   30.6693 H         1 <0>         0.1150 
     42 H10       -36.7044   37.4963   34.3936 H         1 <0>         0.1150 
     43 H11       -36.8691   40.2353   31.0533 H         1 <0>         0.1150 
     44 H12       -30.4221   46.5310   33.8357 H         1 <0>         0.1150 
     45 H13       -30.3794   44.4545   30.0474 H         1 <0>         0.1150 
     46 H14       -31.0480   44.4258   34.9829 H         1 <0>         0.1150 
     47 H15       -31.0622   42.3649   31.1966 H         1 <0>         0.1150 
     48 H16       -28.9708   41.7741   32.6058 H         1 <0>         0.0733 
     49 H17       -28.7081   40.0988   32.2672 H         1 <0>         0.0733 
     50 H18       -28.5618   41.3377   35.0758 H         1 <0>         0.0600 
     51 H19       -27.1845   40.9906   34.0541 H         1 <0>         0.0600 
     52 H20       -30.2891   39.4189   35.8668 H         1 <0>         0.0600 
     53 H21       -30.1099   37.7438   35.3989 H         1 <0>         0.0600 
     54 H22       -33.4643   34.2305   30.4086 H         1 <0>         0.0300 
     55 H23       -34.9508   35.0176   29.9322 H         1 <0>         0.0300 
     56 H24       -34.8568   39.9879   32.2223 H         1 <0>         0.0600 
     57 H25       -34.9769   39.5756   33.9093 H         1 <0>         0.0600 
     58 H26       -30.2511   38.4137   32.9841 H         1 <0>         0.0733 
     59 H27       -34.4028   37.2610   33.4845 H         1 <0>         0.0600 
     60 H28       -32.3856   38.5928   31.8366 H         1 <0>         0.3000 
@<TRIPOS>BOND
     1    1   15 1    
     2    1   33 1    
     3    1   34 1    
     4    1   35 1    
     5    2   17 1    
     6    2   36 1    
     7    2   37 1    
     8    2   38 1    
     9    3    4 ar   
    10    3    5 ar   
    11    3   39 1    
    12    4    6 ar   
    13    4   40 1    
    14    5    7 ar   
    15    5   41 1    
    16    6   18 ar   
    17    6   42 1    
    18    7   18 ar   
    19    7   43 1    
    20    8   10 ar   
    21    8   17 ar   
    22    8   44 1    
    23    9   11 ar   
    24    9   17 ar   
    25    9   45 1    
    26   10   19 ar   
    27   10   46 1    
    28   11   19 ar   
    29   11   47 1    
    30   12   13 1    
    31   12   25 1    
    32   12   48 1    
    33   12   49 1    
    34   13   31 1    
    35   13   50 1    
    36   13   51 1    
    37   14   20 1    
    38   14   31 1    
    39   14   52 1    
    40   14   53 1    
    41   15   30 1    
    42   15   54 1    
    43   15   55 1    
    44   16   18 1    
    45   16   21 1    
    46   16   56 1    
    47   16   57 1    
    48   19   32 1    
    49   20   22 1    
    50   20   25 1    
    51   20   58 1    
    52   21   23 1    
    53   21   24 1    
    54   21   59 1    
    55   22   24 am   BACKBONE|DICT|INTERRES
    56   22   26 2    
    57   23   27 2    
    58   23   30 1    
    59   24   60 1    
    60   25   32 1    
    61   28   32 2    
    62   29   32 2    
@<TRIPOS>SUBSTRUCTURE
     1 <0>         1 GROUP             0       ****    0 ROOT    
@<TRIPOS>MOLECULE
fkb1a-ligand
60   62    1
SMALL
USER_CHARGES


@<TRIPOS>ATOM
      1 C1        -37.0293   35.8666   29.9034 C.3       1 <0>        -0.1800 
      2 C2        -30.7227   47.0986   31.2579 C.3       1 <0>        -0.0650 
      3 C3        -39.2322   38.3646   32.0530 C.ar      1 <0>        -0.1150 
      4 C4        -38.5855   37.8599   33.1951 C.ar      1 <0>        -0.1150 
      5 C5        -38.5105   39.1228   31.1105 C.ar      1 <0>        -0.1150 
      6 C6        -37.2157   38.1075   33.3956 C.ar      1 <0>        -0.1150 
      7 C7        -37.1376   39.3638   31.3037 C.ar      1 <0>        -0.1150 
      8 C8        -31.1606   45.6626   33.3010 C.ar      1 <0>        -0.1150 
      9 C9        -30.7315   44.5663   31.1645 C.ar      1 <0>        -0.1150 
     10 C10       -31.3086   44.4039   33.9150 C.ar      1 <0>        -0.1150 
     11 C11       -30.9106   43.3079   31.7706 C.ar      1 <0>        -0.1150 
     12 C12       -29.0123   40.8465   32.8281 C.3       1 <0>         0.0588 
     13 C13       -28.0586   40.6433   34.0146 C.3       1 <0>         0.0842 
     14 C14       -29.7022   38.6425   34.7152 C.3       1 <0>         0.0842 
     15 C15       -36.0154   35.1433   30.8000 C.3       1 <0>         0.1900 
     16 C16       -34.9922   39.0551   32.6257 C.3       1 <0>        -0.0050 
     17 C17       -30.8734   45.7463   31.9233 C.ar      1 <0>        -0.1150 
     18 C18       -36.4842   38.8453   32.4419 C.ar      1 <0>        -0.1150 
     19 C19       -31.1864   43.2271   33.1507 C.ar      1 <0>         0.1567 
     20 C20       -30.5552   39.0182   33.4762 C.3       1 <0>         0.1321 
     21 C21       -34.0980   37.7892   32.5810 C.3       1 <0>         0.1400 
     22 C22       -31.9877   38.4837   33.6689 C.2       1 <0>         0.5000 
     23 C23       -34.4036   36.8034   31.4372 C.2       1 <0>         0.5100 
     24 N1        -32.6948   38.1956   32.5693 N.am      1 <0>        -0.5000 
     25 N2        -30.4195   40.4717   33.1263 N.pl3     1 <0>        -0.5376 
     26 O1        -32.4500   38.3368   34.8012 O.2       1 <0>        -0.5000 
     27 O2        -33.7886   36.7572   30.3707 O.2       1 <0>        -0.4300 
     28 O3        -32.8293   41.2965   33.7681 O.2       1 <0>        -0.4680 
     29 O4        -30.8865   41.7671   35.3428 O.2       1 <0>        -0.4680 
     30 O5        -35.4619   36.0376   31.7510 O.3       1 <0>        -0.3300 
     31 S1        -27.9352   38.8954   34.4378 S.3       1 <0>        -0.3350 
     32 S2        -31.4166   41.6480   33.9773 S.o2      1 <0>         0.8327 
     33 H1        -37.4768   35.1674   29.1978 H         1 <0>         0.0600 
     34 H2        -37.8365   36.2931   30.4969 H         1 <0>         0.0600 
     35 H3        -36.5631   36.6716   29.3346 H         1 <0>         0.0600 
     36 H4        -31.4051   47.8237   31.6984 H         1 <0>         0.0600 
     37 H5        -29.7027   47.4675   31.3821 H         1 <0>         0.0600 
     38 H6        -30.9384   47.0356   30.1911 H         1 <0>         0.0600 
     39 H7        -40.2822   38.1661   31.8994 H         1 <0>         0.1150 
     40 H8        -39.1412   37.2778   33.9156 H         1 <0>         0.1150 
     41 H9        -39.0083   39.5138   30.2355 H         1 <0>         0.1150 
     42 H10       -36.7225   37.7093   34.2702 H         1 <0>         0.1150 
     43 H11       -36.5895   39.9366   30.5694 H         1 <0>         0.1150 
     44 H12       -31.2729   46.5590   33.8929 H         1 <0>         0.1150 
     45 H13       -30.5159   44.6230   30.1064 H         1 <0>         0.1150 
     46 H14       -31.5375   44.3459   34.9687 H         1 <0>         0.1150 
     47 H15       -30.8324   42.4092   31.1790 H         1 <0>         0.1150 
     48 H16       -28.9409   41.8834   32.5121 H         1 <0>         0.0733 
     49 H17       -28.6644   40.2566   31.9766 H         1 <0>         0.0733 
     50 H18       -28.3859   41.2103   34.8862 H         1 <0>         0.0600 
     51 H19       -27.0627   41.0060   33.7587 H         1 <0>         0.0600 
     52 H20       -30.0052   39.2290   35.5832 H         1 <0>         0.0600 
     53 H21       -29.8421   37.5938   34.9777 H         1 <0>         0.0600 
     54 H22       -35.2370   34.6695   30.2021 H         1 <0>         0.0300 
     55 H23       -36.5103   34.3508   31.3579 H         1 <0>         0.0300 
     56 H24       -34.6498   39.7759   31.8831 H         1 <0>         0.0600 
     57 H25       -34.8549   39.5488   33.5892 H         1 <0>         0.0600 
     58 H26       -30.1553   38.4517   32.6323 H         1 <0>         0.0733 
     59 H27       -34.2728   37.2409   33.5076 H         1 <0>         0.0600 
     60 H28       -32.2780   38.3409   31.6595 H         1 <0>         0.3000 
@<TRIPOS>BOND
     1    1   15 1    
     2    1   33 1    
     3    1   34 1    
     4    1   35 1    
     5    2   17 1    
     6    2   36 1    
     7    2   37 1    
     8    2   38 1    
     9    3    4 ar   
    10    3    5 ar   
    11    3   39 1    
    12    4    6 ar   
    13    4   40 1    
    14    5    7 ar   
    15    5   41 1    
    16    6   18 ar   
    17    6   42 1    
    18    7   18 ar   
    19    7   43 1    
    20    8   10 ar   
    21    8   17 ar   
    22    8   44 1    
    23    9   11 ar   
    24    9   17 ar   
    25    9   45 1    
    26   10   19 ar   
    27   10   46 1    
    28   11   19 ar   
    29   11   47 1    
    30   12   13 1    
    31   12   25 1    
    32   12   48 1    
    33   12   49 1    
    34   13   31 1    
    35   13   50 1    
    36   13   51 1    
    37   14   20 1    
    38   14   31 1    
    39   14   52 1    
    40   14   53 1    
    41   15   30 1    
    42   15   54 1    
    43   15   55 1    
    44   16   18 1    
    45   16   21 1    
    46   16   56 1    
    47   16   57 1    
    48   19   32 1    
    49   20   22 1    
    50   20   25 1    
    51   20   58 1    
    52   21   23 1    
    53   21   24 1    
    54   21   59 1    
    55   22   24 am   BACKBONE|DICT|INTERRES
    56   22   26 2    
    57   23   27 2    
    58   23   30 1    
    59   24   60 1    
    60   25   32 1    
    61   28   32 2    
    62   29   32 2    
@<TRIPOS>SUBSTRUCTURE
     1 <0>         1 GROUP             0       ****    0 ROOT    
@<TRIPOS>MOLECULE
fkb1a-ligand
60   62    1
SMALL
USER_CHARGES


@<TRIPOS>ATOM
      1 C1        -32.5105   35.7658   29.1901 C.3       1 <0>        -0.1800 
      2 C2        -33.6579   38.9736   40.6118 C.3       1 <0>        -0.0650 
      3 C3        -37.7120   40.7659   31.7036 C.ar      1 <0>        -0.1150 
      4 C4        -38.2899   39.8212   32.5736 C.ar      1 <0>        -0.1150 
      5 C5        -37.2132   40.3662   30.4550 C.ar      1 <0>        -0.1150 
      6 C6        -38.3468   38.4653   32.2028 C.ar      1 <0>        -0.1150 
      7 C7        -37.2867   39.0221   30.0812 C.ar      1 <0>        -0.1150 
      8 C8        -33.5213   37.3400   38.6760 C.ar      1 <0>        -0.1150 
      9 C9        -35.1409   39.1647   38.5681 C.ar      1 <0>        -0.1150 
     10 C10       -33.9515   36.8802   37.4153 C.ar      1 <0>        -0.1150 
     11 C11       -35.5661   38.7122   37.3054 C.ar      1 <0>        -0.1150 
     12 C12       -36.3807   34.7600   36.7613 C.3       1 <0>         0.0588 
     13 C13       -37.7623   34.0941   36.7113 C.3       1 <0>         0.0842 
     14 C14       -37.2979   33.5017   34.2122 C.3       1 <0>         0.0842 
     15 C15       -33.7063   34.8650   28.8621 C.3       1 <0>         0.1900 
     16 C16       -37.8914   36.6179   30.5218 C.3       1 <0>        -0.0050 
     17 C17       -34.1190   38.4779   39.2574 C.ar      1 <0>        -0.1150 
     18 C18       -37.8331   38.0644   30.9547 C.ar      1 <0>        -0.1150 
     19 C19       -34.9845   37.5612   36.7403 C.ar      1 <0>         0.1567 
     20 C20       -35.9355   34.2378   34.3154 C.3       1 <0>         0.1321 
     21 C21       -36.6628   35.7397   30.8301 C.3       1 <0>         0.1400 
     22 C22       -35.5731   34.7299   32.9041 C.2       1 <0>         0.5000 
     23 C23       -35.4153   36.0662   30.0092 C.2       1 <0>         0.5100 
     24 N1        -36.5092   35.4666   32.2664 N.am      1 <0>        -0.5000 
     25 N2        -35.8606   35.2206   35.4451 N.pl3     1 <0>        -0.5376 
     26 O1        -34.5022   34.3739   32.4186 O.2       1 <0>        -0.5000 
     27 O2        -35.1106   37.1671   29.5605 O.2       1 <0>        -0.4300 
     28 O3        -34.4936   37.0961   34.2107 O.2       1 <0>        -0.4680 
     29 O4        -36.9086   37.5280   34.8875 O.2       1 <0>        -0.4680 
     30 O5        -34.7740   34.9368   29.7635 O.3       1 <0>        -0.3300 
     31 S1        -37.7252   32.6027   35.7118 S.3       1 <0>        -0.3350 
     32 S2        -35.5957   36.9342   35.1713 S.o2      1 <0>         0.8327 
     33 H1        -31.7108   35.5650   28.4824 H         1 <0>         0.0600 
     34 H2        -32.7277   36.8285   29.1041 H         1 <0>         0.0600 
     35 H3        -32.1368   35.5760   30.1958 H         1 <0>         0.0600 
     36 H4        -33.4268   38.1368   41.2714 H         1 <0>         0.0600 
     37 H5        -32.7637   39.5902   40.5044 H         1 <0>         0.0600 
     38 H6        -34.4337   39.5748   41.0918 H         1 <0>         0.0600 
     39 H7        -37.6758   41.8084   31.9634 H         1 <0>         0.1150 
     40 H8        -38.6933   40.1323   33.5258 H         1 <0>         0.1150 
     41 H9        -36.7870   41.0864   29.7722 H         1 <0>         0.1150 
     42 H10       -38.7848   37.7426   32.8757 H         1 <0>         0.1150 
     43 H11       -36.9125   38.7313   29.1130 H         1 <0>         0.1150 
     44 H12       -32.7341   36.8135   39.1975 H         1 <0>         0.1150 
     45 H13       -35.5961   40.0434   38.9998 H         1 <0>         0.1150 
     46 H14       -33.5030   36.0027   36.9722 H         1 <0>         0.1150 
     47 H15       -36.3280   39.2567   36.7706 H         1 <0>         0.1150 
     48 H16       -36.4437   35.5891   37.4608 H         1 <0>         0.0733 
     49 H17       -35.6562   34.0658   37.1902 H         1 <0>         0.0733 
     50 H18       -38.5093   34.7650   36.2909 H         1 <0>         0.0600 
     51 H19       -38.0882   33.8343   37.7176 H         1 <0>         0.0600 
     52 H20       -38.1068   34.2041   34.0039 H         1 <0>         0.0600 
     53 H21       -37.2876   32.7861   33.3874 H         1 <0>         0.0600 
     54 H22       -33.3857   33.8339   28.9688 H         1 <0>         0.0300 
     55 H23       -34.0563   35.0136   27.8407 H         1 <0>         0.0300 
     56 H24       -38.7761   36.1772   30.9684 H         1 <0>         0.0600 
     57 H25       -38.0783   36.5898   29.4479 H         1 <0>         0.0600 
     58 H26       -35.1954   33.4706   34.5492 H         1 <0>         0.0733 
     59 H27       -36.9105   34.7649   30.4413 H         1 <0>         0.0600 
     60 H28       -37.2900   35.7595   32.8348 H         1 <0>         0.3000 
@<TRIPOS>BOND
     1    1   15 1    
     2    1   33 1    
     3    1   34 1    
     4    1   35 1    
     5    2   17 1    
     6    2   36 1    
     7    2   37 1    
     8    2   38 1    
     9    3    4 ar   
    10    3    5 ar   
    11    3   39 1    
    12    4    6 ar   
    13    4   40 1    
    14    5    7 ar   
    15    5   41 1    
    16    6   18 ar   
    17    6   42 1    
    18    7   18 ar   
    19    7   43 1    
    20    8   10 ar   
    21    8   17 ar   
    22    8   44 1    
    23    9   11 ar   
    24    9   17 ar   
    25    9   45 1    
    26   10   19 ar   
    27   10   46 1    
    28   11   19 ar   
    29   11   47 1    
    30   12   13 1    
    31   12   25 1    
    32   12   48 1    
    33   12   49 1    
    34   13   31 1    
    35   13   50 1    
    36   13   51 1    
    37   14   20 1    
    38   14   31 1    
    39   14   52 1    
    40   14   53 1    
    41   15   30 1    
    42   15   54 1    
    43   15   55 1    
    44   16   18 1    
    45   16   21 1    
    46   16   56 1    
    47   16   57 1    
    48   19   32 1    
    49   20   22 1    
    50   20   25 1    
    51   20   58 1    
    52   21   23 1    
    53   21   24 1    
    54   21   59 1    
    55   22   24 am   BACKBONE|DICT|INTERRES
    56   22   26 2    
    57   23   27 2    
    58   23   30 1    
    59   24   60 1    
    60   25   32 1    
    61   28   32 2    
    62   29   32 2    
@<TRIPOS>SUBSTRUCTURE
     1 <0>         1 GROUP             0       ****    0 ROOT    
@<TRIPOS>MOLECULE
fkb1a-ligand
60   62    1
SMALL
USER_CHARGES


@<TRIPOS>ATOM
      1 C1        -33.3449   36.1627   28.9040 C.3       1 <0>        -0.1800 
      2 C2        -30.3652   46.9398   30.4138 C.3       1 <0>        -0.0650 
      3 C3        -38.9468   37.9637   31.4930 C.ar      1 <0>        -0.1150 
      4 C4        -38.6975   38.4465   32.7905 C.ar      1 <0>        -0.1150 
      5 C5        -37.8865   37.7980   30.5842 C.ar      1 <0>        -0.1150 
      6 C6        -37.3858   38.7782   33.1800 C.ar      1 <0>        -0.1150 
      7 C7        -36.5775   38.1391   30.9694 C.ar      1 <0>        -0.1150 
      8 C8        -30.5078   44.4571   30.8814 C.ar      1 <0>        -0.1150 
      9 C9        -31.0206   46.0171   32.6879 C.ar      1 <0>        -0.1150 
     10 C10       -30.7896   43.3743   31.7370 C.ar      1 <0>        -0.1150 
     11 C11       -31.2865   44.9347   33.5497 C.ar      1 <0>        -0.1150 
     12 C12       -29.0288   41.2792   33.6596 C.3       1 <0>         0.0588 
     13 C13       -28.3128   41.4084   35.0121 C.3       1 <0>         0.0842 
     14 C14       -30.1051   39.5912   35.8811 C.3       1 <0>         0.0842 
     15 C15       -33.4066   35.6501   30.3452 C.3       1 <0>         0.1900 
     16 C16       -34.9143   39.0507   32.6524 C.3       1 <0>        -0.0050 
     17 C17       -30.6351   45.7807   31.3506 C.ar      1 <0>        -0.1150 
     18 C18       -36.3217   38.6312   32.2675 C.ar      1 <0>        -0.1150 
     19 C19       -31.1720   43.6147   33.0705 C.ar      1 <0>         0.1567 
     20 C20       -30.6937   39.6161   34.4469 C.3       1 <0>         0.1321 
     21 C21       -33.9664   37.9615   33.2164 C.3       1 <0>         0.1400 
     22 C22       -32.1408   39.0783   34.4718 C.2       1 <0>         0.5000 
     23 C23       -33.9462   36.6197   32.4660 C.2       1 <0>         0.5100 
     24 N1        -32.6110   38.4972   33.3588 N.am      1 <0>        -0.5000 
     25 N2        -30.4698   40.9455   33.7885 N.pl3     1 <0>        -0.5376 
     26 O1        -32.8169   39.1689   35.4958 O.2       1 <0>        -0.5000 
     27 O2        -34.3134   35.5558   32.9638 O.2       1 <0>        -0.4300 
     28 O3        -32.9191   41.8210   33.7701 O.2       1 <0>        -0.4680 
     29 O4        -31.3106   42.6769   35.5505 O.2       1 <0>        -0.4680 
     30 O5        -33.4753   36.7653   31.2168 O.3       1 <0>        -0.3300 
     31 S1        -28.3130   39.8337   35.8914 S.3       1 <0>        -0.3350 
     32 S2        -31.5748   42.2541   34.1670 S.o2      1 <0>         0.8327 
     33 H1        -33.3069   35.3348   28.1970 H         1 <0>         0.0600 
     34 H2        -34.2240   36.7608   28.6636 H         1 <0>         0.0600 
     35 H3        -32.4638   36.7837   28.7450 H         1 <0>         0.0600 
     36 H4        -29.2943   47.1230   30.3403 H         1 <0>         0.0600 
     37 H5        -30.7467   46.7232   29.4151 H         1 <0>         0.0600 
     38 H6        -30.8453   47.8525   30.7688 H         1 <0>         0.0600 
     39 H7        -39.9543   37.7100   31.2011 H         1 <0>         0.1150 
     40 H8        -39.5174   38.5654   33.4826 H         1 <0>         0.1150 
     41 H9        -38.0761   37.4109   29.5951 H         1 <0>         0.1150 
     42 H10       -37.2021   39.1599   34.1723 H         1 <0>         0.1150 
     43 H11       -35.7703   38.0208   30.2632 H         1 <0>         0.1150 
     44 H12       -30.2201   44.2683   29.8564 H         1 <0>         0.1150 
     45 H13       -31.1200   47.0275   33.0574 H         1 <0>         0.1150 
     46 H14       -30.7208   42.3655   31.3657 H         1 <0>         0.1150 
     47 H15       -31.5971   45.1202   34.5679 H         1 <0>         0.1150 
     48 H16       -28.8971   42.2055   33.1062 H         1 <0>         0.0733 
     49 H17       -28.5421   40.5088   33.0596 H         1 <0>         0.0733 
     50 H18       -28.7755   42.1736   35.6344 H         1 <0>         0.0600 
     51 H19       -27.2772   41.7129   34.8582 H         1 <0>         0.0600 
     52 H20       -30.5655   40.3579   36.5040 H         1 <0>         0.0600 
     53 H21       -30.3078   38.6352   36.3651 H         1 <0>         0.0600 
     54 H22       -32.5223   35.0562   30.5792 H         1 <0>         0.0300 
     55 H23       -34.2804   35.0082   30.4664 H         1 <0>         0.0300 
     56 H24       -34.4869   39.5156   31.7694 H         1 <0>         0.0600 
     57 H25       -34.9917   39.8584   33.3819 H         1 <0>         0.0600 
     58 H26       -30.1335   38.8793   33.8700 H         1 <0>         0.0733 
     59 H27       -34.3362   37.7281   34.2158 H         1 <0>         0.0600 
     60 H28       -32.0144   38.4473   32.5451 H         1 <0>         0.3000 
@<TRIPOS>BOND
     1    1   15 1    
     2    1   33 1    
     3    1   34 1    
     4    1   35 1    
     5    2   17 1    
     6    2   36 1    
     7    2   37 1    
     8    2   38 1    
     9    3    4 ar   
    10    3    5 ar   
    11    3   39 1    
    12    4    6 ar   
    13    4   40 1    
    14    5    7 ar   
    15    5   41 1    
    16    6   18 ar   
    17    6   42 1    
    18    7   18 ar   
    19    7   43 1    
    20    8   10 ar   
    21    8   17 ar   
    22    8   44 1    
    23    9   11 ar   
    24    9   17 ar   
    25    9   45 1    
    26   10   19 ar   
    27   10   46 1    
    28   11   19 ar   
    29   11   47 1    
    30   12   13 1    
    31   12   25 1    
    32   12   48 1    
    33   12   49 1    
    34   13   31 1    
    35   13   50 1    
    36   13   51 1    
    37   14   20 1    
    38   14   31 1    
    39   14   52 1    
    40   14   53 1    
    41   15   30 1    
    42   15   54 1    
    43   15   55 1    
    44   16   18 1    
    45   16   21 1    
    46   16   56 1    
    47   16   57 1    
    48   19   32 1    
    49   20   22 1    
    50   20   25 1    
    51   20   58 1    
    52   21   23 1    
    53   21   24 1    
    54   21   59 1    
    55   22   24 am   BACKBONE|DICT|INTERRES
    56   22   26 2    
    57   23   27 2    
    58   23   30 1    
    59   24   60 1    
    60   25   32 1    
    61   28   32 2    
    62   29   32 2    
@<TRIPOS>SUBSTRUCTURE
     1 <0>         1 GROUP             0       ****    0 ROOT    
@<TRIPOS>MOLECULE
fkb1a-ligand
60   62    1
SMALL
USER_CHARGES


@<TRIPOS>ATOM
      1 C1        -32.7281   34.7677   29.7655 C.3       1 <0>        -0.1800 
      2 C2        -32.6109   39.4212   39.2191 C.3       1 <0>        -0.0650 
      3 C3        -37.1932   40.5980   32.0989 C.ar      1 <0>        -0.1150 
      4 C4        -37.9709   39.6265   32.7625 C.ar      1 <0>        -0.1150 
      5 C5        -36.7335   40.3649   30.7934 C.ar      1 <0>        -0.1150 
      6 C6        -38.2423   38.3974   32.1331 C.ar      1 <0>        -0.1150 
      7 C7        -37.0195   39.1446   30.1639 C.ar      1 <0>        -0.1150 
      8 C8        -32.6000   38.1701   37.0157 C.ar      1 <0>        -0.1150 
      9 C9        -34.7454   38.7637   38.0189 C.ar      1 <0>        -0.1150 
     10 C10       -33.2671   37.5751   35.9281 C.ar      1 <0>        -0.1150 
     11 C11       -35.4164   38.1752   36.9313 C.ar      1 <0>        -0.1150 
     12 C12       -35.4274   34.6136   36.2125 C.3       1 <0>         0.0588 
     13 C13       -36.8532   34.5920   36.7707 C.3       1 <0>         0.0842 
     14 C14       -37.6189   33.9887   34.2585 C.3       1 <0>         0.0842 
     15 C15       -33.7101   35.1179   28.6306 C.3       1 <0>         0.1900 
     16 C16       -37.9353   36.7775   30.2045 C.3       1 <0>        -0.0050 
     17 C17       -33.3353   38.7644   38.0625 C.ar      1 <0>        -0.1150 
     18 C18       -37.7339   38.1390   30.8443 C.ar      1 <0>        -0.1150 
     19 C19       -34.6736   37.5802   35.8923 C.ar      1 <0>         0.1567 
     20 C20       -36.1196   34.1548   33.8944 C.3       1 <0>         0.1321 
     21 C21       -36.8342   35.7199   30.4310 C.3       1 <0>         0.1400 
     22 C22       -35.9696   34.4086   32.3895 C.2       1 <0>         0.5000 
     23 C23       -35.4910   36.1078   29.8222 C.2       1 <0>         0.5100 
     24 N1        -36.7183   35.3919   31.8534 N.am      1 <0>        -0.5000 
     25 N2        -35.4006   35.0889   34.8110 N.pl3     1 <0>        -0.5376 
     26 O1        -35.2158   33.6890   31.7347 O.2       1 <0>        -0.5000 
     27 O2        -34.9023   37.1652   30.0011 O.2       1 <0>        -0.4300 
     28 O3        -34.7674   37.1201   33.2991 O.2       1 <0>        -0.4680 
     29 O4        -36.9488   37.1603   34.6036 O.2       1 <0>        -0.4680 
     30 O5        -35.0219   35.0867   29.1220 O.3       1 <0>        -0.3300 
     31 S1        -37.8574   33.3471   35.9333 S.3       1 <0>        -0.3350 
     32 S2        -35.5250   36.8119   34.5193 S.o2      1 <0>         0.8327 
     33 H1        -31.7114   34.7647   29.3815 H         1 <0>         0.0600 
     34 H2        -32.7656   35.4942   30.5775 H         1 <0>         0.0600 
     35 H3        -32.9354   33.7813   30.1823 H         1 <0>         0.0600 
     36 H4        -31.7833   38.7978   39.5546 H         1 <0>         0.0600 
     37 H5        -32.2103   40.3861   38.9093 H         1 <0>         0.0600 
     38 H6        -33.2802   39.5803   40.0631 H         1 <0>         0.0600 
     39 H7        -36.9339   41.5315   32.5693 H         1 <0>         0.1150 
     40 H8        -38.3365   39.8086   33.7625 H         1 <0>         0.1150 
     41 H9        -36.1571   41.1342   30.2905 H         1 <0>         0.1150 
     42 H10       -38.8102   37.6427   32.6589 H         1 <0>         0.1150 
     43 H11       -36.6415   38.9613   29.1704 H         1 <0>         0.1150 
     44 H12       -31.5199   38.1760   37.0413 H         1 <0>         0.1150 
     45 H13       -35.3174   39.2308   38.8077 H         1 <0>         0.1150 
     46 H14       -32.7061   37.1195   35.1250 H         1 <0>         0.1150 
     47 H15       -36.4962   38.1834   36.8973 H         1 <0>         0.1150 
     48 H16       -34.7853   35.2309   36.8386 H         1 <0>         0.0733 
     49 H17       -34.9950   33.6145   36.2617 H         1 <0>         0.0733 
     50 H18       -37.3123   35.5634   36.6127 H         1 <0>         0.0600 
     51 H19       -36.8512   34.3883   37.8412 H         1 <0>         0.0600 
     52 H20       -38.1573   34.9330   34.1708 H         1 <0>         0.0600 
     53 H21       -38.1042   33.2992   33.5673 H         1 <0>         0.0600 
     54 H22       -33.7104   34.3729   27.8374 H         1 <0>         0.0300 
     55 H23       -33.4720   36.0813   28.1786 H         1 <0>         0.0300 
     56 H24       -38.8865   36.3807   30.5563 H         1 <0>         0.0600 
     57 H25       -38.0514   36.9058   29.1307 H         1 <0>         0.0600 
     58 H26       -35.6625   33.1740   34.0425 H         1 <0>         0.0733 
     59 H27       -37.1339   34.8263   29.8906 H         1 <0>         0.0600 
     60 H28       -37.2506   35.9695   32.4875 H         1 <0>         0.3000 
@<TRIPOS>BOND
     1    1   15 1    
     2    1   33 1    
     3    1   34 1    
     4    1   35 1    
     5    2   17 1    
     6    2   36 1    
     7    2   37 1    
     8    2   38 1    
     9    3    4 ar   
    10    3    5 ar   
    11    3   39 1    
    12    4    6 ar   
    13    4   40 1    
    14    5    7 ar   
    15    5   41 1    
    16    6   18 ar   
    17    6   42 1    
    18    7   18 ar   
    19    7   43 1    
    20    8   10 ar   
    21    8   17 ar   
    22    8   44 1    
    23    9   11 ar   
    24    9   17 ar   
    25    9   45 1    
    26   10   19 ar   
    27   10   46 1    
    28   11   19 ar   
    29   11   47 1    
    30   12   13 1    
    31   12   25 1    
    32   12   48 1    
    33   12   49 1    
    34   13   31 1    
    35   13   50 1    
    36   13   51 1    
    37   14   20 1    
    38   14   31 1    
    39   14   52 1    
    40   14   53 1    
    41   15   30 1    
    42   15   54 1    
    43   15   55 1    
    44   16   18 1    
    45   16   21 1    
    46   16   56 1    
    47   16   57 1    
    48   19   32 1    
    49   20   22 1    
    50   20   25 1    
    51   20   58 1    
    52   21   23 1    
    53   21   24 1    
    54   21   59 1    
    55   22   24 am   BACKBONE|DICT|INTERRES
    56   22   26 2    
    57   23   27 2    
    58   23   30 1    
    59   24   60 1    
    60   25   32 1    
    61   28   32 2    
    62   29   32 2    
@<TRIPOS>SUBSTRUCTURE
     1 <0>         1 GROUP             0       ****    0 ROOT    
@<TRIPOS>MOLECULE
fkb1a-ligand
60   62    1
SMALL
USER_CHARGES


@<TRIPOS>ATOM
      1 C1        -38.3814   39.2449   31.2624 C.3       1 <0>        -0.1800 
      2 C2        -29.6179   39.6121   34.9511 C.3       1 <0>        -0.0650 
      3 C3        -32.8865   31.8574   31.5945 C.ar      1 <0>        -0.1150 
      4 C4        -34.2812   31.7278   31.4734 C.ar      1 <0>        -0.1150 
      5 C5        -32.2510   33.0293   31.1423 C.ar      1 <0>        -0.1150 
      6 C6        -35.0351   32.7644   30.8894 C.ar      1 <0>        -0.1150 
      7 C7        -33.0055   34.0704   30.5628 C.ar      1 <0>        -0.1150 
      8 C8        -31.7361   39.1555   36.2622 C.ar      1 <0>        -0.1150 
      9 C9        -31.7726   38.8614   33.8330 C.ar      1 <0>        -0.1150 
     10 C10       -33.0897   38.7712   36.3356 C.ar      1 <0>        -0.1150 
     11 C11       -33.1302   38.4873   33.9033 C.ar      1 <0>        -0.1150 
     12 C12       -34.8629   35.4232   36.1418 C.3       1 <0>         0.0588 
     13 C13       -36.0096   34.9795   37.0700 C.3       1 <0>         0.0842 
     14 C14       -37.5714   35.1139   34.8201 C.3       1 <0>         0.0842 
     15 C15       -37.1367   39.5718   30.4205 C.3       1 <0>         0.1900 
     16 C16       -35.2398   35.0532   29.8065 C.3       1 <0>        -0.0050 
     17 C17       -31.0751   39.2019   35.0134 C.ar      1 <0>        -0.1150 
     18 C18       -34.4046   33.9379   30.4236 C.ar      1 <0>        -0.1150 
     19 C19       -33.7829   38.4463   35.1539 C.ar      1 <0>         0.1567 
     20 C20       -36.2567   35.4622   34.0937 C.3       1 <0>         0.1321 
     21 C21       -35.1382   36.4204   30.5299 C.3       1 <0>         0.1400 
     22 C22       -36.4492   36.0296   32.6811 C.2       1 <0>         0.5000 
     23 C23       -36.1624   37.4195   29.9273 C.2       1 <0>         0.5100 
     24 N1        -35.3191   36.1897   31.9725 N.am      1 <0>        -0.5000 
     25 N2        -35.3485   36.2163   34.9937 N.pl3     1 <0>        -0.5376 
     26 O1        -37.5684   36.2943   32.2533 O.2       1 <0>        -0.5000 
     27 O2        -36.9046   37.1760   28.9747 O.2       1 <0>        -0.4300 
     28 O3        -36.1674   38.5584   34.0732 O.2       1 <0>        -0.4680 
     29 O4        -36.0155   38.1699   36.5893 O.2       1 <0>        -0.4680 
     30 O5        -36.1282   38.5861   30.6066 O.3       1 <0>        -0.3300 
     31 S1        -37.2527   33.9825   36.2036 S.3       1 <0>        -0.3350 
     32 S2        -35.4973   37.9443   35.2314 S.o2      1 <0>         0.8327 
     33 H1        -39.1320   40.0299   31.1948 H         1 <0>         0.0600 
     34 H2        -38.8521   38.3186   30.9368 H         1 <0>         0.0600 
     35 H3        -38.1214   39.1328   32.3144 H         1 <0>         0.0600 
     36 H4        -29.4683   40.5650   35.4585 H         1 <0>         0.0600 
     37 H5        -28.9952   38.8613   35.4390 H         1 <0>         0.0600 
     38 H6        -29.2739   39.7191   33.9218 H         1 <0>         0.0600 
     39 H7        -32.3046   31.0620   32.0384 H         1 <0>         0.1150 
     40 H8        -34.7761   30.8316   31.8194 H         1 <0>         0.1150 
     41 H9        -31.1821   33.1219   31.2453 H         1 <0>         0.1150 
     42 H10       -36.1064   32.6511   30.8036 H         1 <0>         0.1150 
     43 H11       -32.5076   34.9665   30.2209 H         1 <0>         0.1150 
     44 H12       -31.2130   39.4271   37.1706 H         1 <0>         0.1150 
     45 H13       -31.2725   38.8835   32.8753 H         1 <0>         0.1150 
     46 H14       -33.5942   38.7455   37.2930 H         1 <0>         0.1150 
     47 H15       -33.6659   38.2318   33.0005 H         1 <0>         0.1150 
     48 H16       -34.1437   36.0122   36.7085 H         1 <0>         0.0733 
     49 H17       -34.3200   34.5531   35.7738 H         1 <0>         0.0733 
     50 H18       -36.5053   35.8404   37.5142 H         1 <0>         0.0600 
     51 H19       -35.6120   34.3932   37.8984 H         1 <0>         0.0600 
     52 H20       -38.0652   36.0149   35.1818 H         1 <0>         0.0600 
     53 H21       -38.2711   34.6122   34.1544 H         1 <0>         0.0600 
     54 H22       -36.7303   40.5334   30.7388 H         1 <0>         0.0300 
     55 H23       -37.3958   39.6783   29.3677 H         1 <0>         0.0300 
     56 H24       -34.9246   35.1659   28.7660 H         1 <0>         0.0600 
     57 H25       -36.2812   34.7259   29.7721 H         1 <0>         0.0600 
     58 H26       -35.7710   34.5058   33.8944 H         1 <0>         0.0733 
     59 H27       -34.1345   36.8223   30.3886 H         1 <0>         0.0600 
     60 H28       -34.4723   35.9583   32.4701 H         1 <0>         0.3000 
@<TRIPOS>BOND
     1    1   15 1    
     2    1   33 1    
     3    1   34 1    
     4    1   35 1    
     5    2   17 1    
     6    2   36 1    
     7    2   37 1    
     8    2   38 1    
     9    3    4 ar   
    10    3    5 ar   
    11    3   39 1    
    12    4    6 ar   
    13    4   40 1    
    14    5    7 ar   
    15    5   41 1    
    16    6   18 ar   
    17    6   42 1    
    18    7   18 ar   
    19    7   43 1    
    20    8   10 ar   
    21    8   17 ar   
    22    8   44 1    
    23    9   11 ar   
    24    9   17 ar   
    25    9   45 1    
    26   10   19 ar   
    27   10   46 1    
    28   11   19 ar   
    29   11   47 1    
    30   12   13 1    
    31   12   25 1    
    32   12   48 1    
    33   12   49 1    
    34   13   31 1    
    35   13   50 1    
    36   13   51 1    
    37   14   20 1    
    38   14   31 1    
    39   14   52 1    
    40   14   53 1    
    41   15   30 1    
    42   15   54 1    
    43   15   55 1    
    44   16   18 1    
    45   16   21 1    
    46   16   56 1    
    47   16   57 1    
    48   19   32 1    
    49   20   22 1    
    50   20   25 1    
    51   20   58 1    
    52   21   23 1    
    53   21   24 1    
    54   21   59 1    
    55   22   24 am   BACKBONE|DICT|INTERRES
    56   22   26 2    
    57   23   27 2    
    58   23   30 1    
    59   24   60 1    
    60   25   32 1    
    61   28   32 2    
    62   29   32 2    
@<TRIPOS>SUBSTRUCTURE
     1 <0>         1 GROUP             0       ****    0 ROOT    
@<TRIPOS>MOLECULE
fkb1a-ligand
60   62    1
SMALL
USER_CHARGES


@<TRIPOS>ATOM
      1 C1        -32.5182   36.7055   28.9765 C.3       1 <0>        -0.1800 
      2 C2        -32.6242   39.4813   39.4328 C.3       1 <0>        -0.0650 
      3 C3        -38.1102   40.6171   31.8874 C.ar      1 <0>        -0.1150 
      4 C4        -38.5125   39.5502   32.7151 C.ar      1 <0>        -0.1150 
      5 C5        -37.5786   40.3644   30.6180 C.ar      1 <0>        -0.1150 
      6 C6        -38.4295   38.2249   32.2417 C.ar      1 <0>        -0.1150 
      7 C7        -37.4790   39.0512   30.1638 C.ar      1 <0>        -0.1150 
      8 C8        -34.7449   38.7666   38.2341 C.ar      1 <0>        -0.1150 
      9 C9        -32.5836   38.2348   37.2265 C.ar      1 <0>        -0.1150 
     10 C10       -35.4021   38.1681   37.1422 C.ar      1 <0>        -0.1150 
     11 C11       -33.2376   37.6252   36.1371 C.ar      1 <0>        -0.1150 
     12 C12       -35.3087   34.5878   36.3370 C.3       1 <0>         0.0588 
     13 C13       -36.7242   34.4735   36.9220 C.3       1 <0>         0.0842 
     14 C14       -37.5034   33.9843   34.3745 C.3       1 <0>         0.0842 
     15 C15       -33.3328   35.4218   29.0534 C.3       1 <0>         0.1900 
     16 C16       -37.9155   36.5828   30.3551 C.3       1 <0>        -0.0050 
     17 C17       -33.3348   38.8075   38.2762 C.ar      1 <0>        -0.1150 
     18 C18       -37.9182   37.9760   30.9513 C.ar      1 <0>        -0.1150 
     19 C19       -34.6455   37.5966   36.0991 C.ar      1 <0>         0.1567 
     20 C20       -36.0087   34.1693   34.0169 C.3       1 <0>         0.1321 
     21 C21       -36.6691   35.7011   30.5370 C.3       1 <0>         0.1400 
     22 C22       -35.8691   34.3877   32.5030 C.2       1 <0>         0.5000 
     23 C23       -35.4506   36.2517   29.7747 C.2       1 <0>         0.5100 
     24 N1        -36.4463   35.4786   31.9660 N.am      1 <0>        -0.5000 
     25 N2        -35.3101   35.1066   34.9485 N.pl3     1 <0>        -0.5376 
     26 O1        -35.3091   33.5233   31.8299 O.2       1 <0>        -0.5000 
     27 O2        -35.4850   37.1802   28.9681 O.2       1 <0>        -0.4300 
     28 O3        -34.7251   37.1921   33.4961 O.2       1 <0>        -0.4680 
     29 O4        -36.9109   37.1471   34.7956 O.2       1 <0>        -0.4680 
     30 O5        -34.3896   35.4722   29.9840 O.3       1 <0>        -0.3300 
     31 S1        -37.7224   33.2655   36.0215 S.3       1 <0>        -0.3350 
     32 S2        -35.4777   36.8341   34.7079 S.o2      1 <0>         0.8327 
     33 H1        -31.7113   36.5017   28.2932 H         1 <0>         0.0600 
     34 H2        -33.0655   37.5540   28.5698 H         1 <0>         0.0600 
     35 H3        -32.1105   36.9811   29.9487 H         1 <0>         0.0600 
     36 H4        -33.3276   39.9386   40.1300 H         1 <0>         0.0600 
     37 H5        -32.0250   38.7560   39.9818 H         1 <0>         0.0600 
     38 H6        -31.9647   40.2655   39.0609 H         1 <0>         0.0600 
     39 H7        -38.2353   41.6439   32.1747 H         1 <0>         0.1150 
     40 H8        -38.9234   39.7492   33.6937 H         1 <0>         0.1150 
     41 H9        -37.2815   41.1646   29.9633 H         1 <0>         0.1150 
     42 H10       -38.7836   37.4105   32.8576 H         1 <0>         0.1150 
     43 H11       -37.1102   38.8886   29.1672 H         1 <0>         0.1150 
     44 H12       -35.3265   39.2127   39.0293 H         1 <0>         0.1150 
     45 H13       -31.5045   38.2669   37.2536 H         1 <0>         0.1150 
     46 H14       -36.4823   38.1550   37.1065 H         1 <0>         0.1150 
     47 H15       -32.6660   37.1872   35.3308 H         1 <0>         0.1150 
     48 H16       -34.6853   35.2069   36.9783 H         1 <0>         0.0733 
     49 H17       -34.8309   33.6068   36.3489 H         1 <0>         0.0733 
     50 H18       -37.2266   35.4338   36.8783 H         1 <0>         0.0600 
     51 H19       -36.6791   34.1790   37.9698 H         1 <0>         0.0600 
     52 H20       -38.0416   34.9302   34.3299 H         1 <0>         0.0600 
     53 H21       -37.9913   33.3218   33.6581 H         1 <0>         0.0600 
     54 H22       -32.6779   34.6132   29.3706 H         1 <0>         0.0300 
     55 H23       -33.7156   35.1552   28.0676 H         1 <0>         0.0300 
     56 H24       -38.7745   36.0544   30.7530 H         1 <0>         0.0600 
     57 H25       -38.1104   36.6714   29.2868 H         1 <0>         0.0600 
     58 H26       -35.5453   33.1931   34.1737 H         1 <0>         0.0733 
     59 H27       -36.9084   34.7649   30.0582 H         1 <0>         0.0600 
     60 H28       -36.8270   36.1715   32.5950 H         1 <0>         0.3000 
@<TRIPOS>BOND
     1    1   15 1    
     2    1   33 1    
     3    1   34 1    
     4    1   35 1    
     5    2   17 1    
     6    2   36 1    
     7    2   37 1    
     8    2   38 1    
     9    3    4 ar   
    10    3    5 ar   
    11    3   39 1    
    12    4    6 ar   
    13    4   40 1    
    14    5    7 ar   
    15    5   41 1    
    16    6   18 ar   
    17    6   42 1    
    18    7   18 ar   
    19    7   43 1    
    20    8   10 ar   
    21    8   17 ar   
    22    8   44 1    
    23    9   11 ar   
    24    9   17 ar   
    25    9   45 1    
    26   10   19 ar   
    27   10   46 1    
    28   11   19 ar   
    29   11   47 1    
    30   12   13 1    
    31   12   25 1    
    32   12   48 1    
    33   12   49 1    
    34   13   31 1    
    35   13   50 1    
    36   13   51 1    
    37   14   20 1    
    38   14   31 1    
    39   14   52 1    
    40   14   53 1    
    41   15   30 1    
    42   15   54 1    
    43   15   55 1    
    44   16   18 1    
    45   16   21 1    
    46   16   56 1    
    47   16   57 1    
    48   19   32 1    
    49   20   22 1    
    50   20   25 1    
    51   20   58 1    
    52   21   23 1    
    53   21   24 1    
    54   21   59 1    
    55   22   24 am   BACKBONE|DICT|INTERRES
    56   22   26 2    
    57   23   27 2    
    58   23   30 1    
    59   24   60 1    
    60   25   32 1    
    61   28   32 2    
    62   29   32 2    
@<TRIPOS>SUBSTRUCTURE
     1 <0>         1 GROUP             0       ****    0 ROOT    
@<TRIPOS>MOLECULE
fkb1a-ligand
60   62    1
SMALL
USER_CHARGES


@<TRIPOS>ATOM
      1 C1        -33.4772   35.9772   28.9941 C.3       1 <0>        -0.1800 
      2 C2        -30.6779   47.3490   31.0053 C.3       1 <0>        -0.0650 
      3 C3        -39.0711   37.9641   32.9650 C.ar      1 <0>        -0.1150 
      4 C4        -38.6125   39.0818   32.2419 C.ar      1 <0>        -0.1150 
      5 C5        -38.1689   37.1903   33.7209 C.ar      1 <0>        -0.1150 
      6 C6        -37.2483   39.4227   32.2696 C.ar      1 <0>        -0.1150 
      7 C7        -36.8075   37.5424   33.7631 C.ar      1 <0>        -0.1150 
      8 C8        -30.7556   44.8201   31.0313 C.ar      1 <0>        -0.1150 
      9 C9        -31.0112   46.0153   33.1420 C.ar      1 <0>        -0.1150 
     10 C10       -30.9108   43.5912   31.7046 C.ar      1 <0>        -0.1150 
     11 C11       -31.1508   44.7877   33.8177 C.ar      1 <0>        -0.1150 
     12 C12       -28.9103   41.2423   32.8567 C.3       1 <0>         0.0588 
     13 C13       -27.9375   41.2071   34.0429 C.3       1 <0>         0.0842 
     14 C14       -29.4749   39.2055   34.9605 C.3       1 <0>         0.0842 
     15 C15       -34.7567   36.2454   29.7987 C.3       1 <0>         0.1900 
     16 C16       -34.8655   39.0291   33.0263 C.3       1 <0>        -0.0050 
     17 C17       -30.8146   46.0340   31.7455 C.ar      1 <0>        -0.1150 
     18 C18       -36.3382   38.6510   33.0240 C.ar      1 <0>        -0.1150 
     19 C19       -31.1058   43.5777   33.0986 C.ar      1 <0>         0.1567 
     20 C20       -30.3623   39.4222   33.7060 C.3       1 <0>         0.1321 
     21 C21       -33.8313   37.8748   33.0414 C.3       1 <0>         0.1400 
     22 C22       -31.7666   38.8509   33.9773 C.2       1 <0>         0.5000 
     23 C23       -34.0613   36.7186   32.0505 C.2       1 <0>         0.5100 
     24 N1        -32.4764   38.4113   32.9278 N.am      1 <0>        -0.5000 
     25 N2        -30.2958   40.8397   33.2193 N.pl3     1 <0>        -0.5376 
     26 O1        -32.2010   38.8024   35.1286 O.2       1 <0>        -0.5000 
     27 O2        -33.8404   35.5394   32.3289 O.2       1 <0>        -0.4300 
     28 O3        -32.7295   41.6419   33.7711 O.2       1 <0>        -0.4680 
     29 O4        -30.8296   42.2272   35.3609 O.2       1 <0>        -0.4680 
     30 O5        -34.5103   37.1608   30.8584 O.3       1 <0>        -0.3300 
     31 S1        -27.7247   39.5186   34.6355 S.3       1 <0>        -0.3350 
     32 S2        -31.3303   42.0357   33.9929 S.o2      1 <0>         0.8327 
     33 H1        -33.6793   35.2954   28.1686 H         1 <0>         0.0600 
     34 H2        -33.0742   36.9004   28.5758 H         1 <0>         0.0600 
     35 H3        -32.7019   35.5252   29.6154 H         1 <0>         0.0600 
     36 H4        -29.7401   47.3750   30.4486 H         1 <0>         0.0600 
     37 H5        -31.4988   47.4702   30.2988 H         1 <0>         0.0600 
     38 H6        -30.6917   48.1957   31.6920 H         1 <0>         0.0600 
     39 H7        -40.1172   37.6998   32.9431 H         1 <0>         0.1150 
     40 H8        -39.3079   39.6757   31.6676 H         1 <0>         0.1150 
     41 H9        -38.5279   36.3358   34.2769 H         1 <0>         0.1150 
     42 H10       -36.9041   40.2764   31.7043 H         1 <0>         0.1150 
     43 H11       -36.1264   36.9487   34.3554 H         1 <0>         0.1150 
     44 H12       -30.6192   44.8283   29.9591 H         1 <0>         0.1150 
     45 H13       -31.0664   46.9372   33.7006 H         1 <0>         0.1150 
     46 H14       -30.8931   42.6676   31.1473 H         1 <0>         0.1150 
     47 H15       -31.3096   44.7763   34.8863 H         1 <0>         0.1150 
     48 H16       -28.8898   42.2391   32.4287 H         1 <0>         0.0733 
     49 H17       -28.5449   40.5807   32.0689 H         1 <0>         0.0733 
     50 H18       -28.2850   41.8427   34.8577 H         1 <0>         0.0600 
     51 H19       -26.9641   41.5902   33.7392 H         1 <0>         0.0600 
     52 H20       -29.7963   39.8452   35.7837 H         1 <0>         0.0600 
     53 H21       -29.5581   38.1781   35.3177 H         1 <0>         0.0600 
     54 H22       -35.1786   35.3141   30.1796 H         1 <0>         0.0300 
     55 H23       -35.5110   36.6813   29.1431 H         1 <0>         0.0300 
     56 H24       -34.6651   39.6703   32.1683 H         1 <0>         0.0600 
     57 H25       -34.7040   39.6617   33.8993 H         1 <0>         0.0600 
     58 H26       -29.9438   38.7916   32.9185 H         1 <0>         0.0733 
     59 H27       -33.9070   37.4180   34.0289 H         1 <0>         0.0600 
     60 H28       -32.0856   38.4895   31.9997 H         1 <0>         0.3000 
@<TRIPOS>BOND
     1    1   15 1    
     2    1   33 1    
     3    1   34 1    
     4    1   35 1    
     5    2   17 1    
     6    2   36 1    
     7    2   37 1    
     8    2   38 1    
     9    3    4 ar   
    10    3    5 ar   
    11    3   39 1    
    12    4    6 ar   
    13    4   40 1    
    14    5    7 ar   
    15    5   41 1    
    16    6   18 ar   
    17    6   42 1    
    18    7   18 ar   
    19    7   43 1    
    20    8   10 ar   
    21    8   17 ar   
    22    8   44 1    
    23    9   11 ar   
    24    9   17 ar   
    25    9   45 1    
    26   10   19 ar   
    27   10   46 1    
    28   11   19 ar   
    29   11   47 1    
    30   12   13 1    
    31   12   25 1    
    32   12   48 1    
    33   12   49 1    
    34   13   31 1    
    35   13   50 1    
    36   13   51 1    
    37   14   20 1    
    38   14   31 1    
    39   14   52 1    
    40   14   53 1    
    41   15   30 1    
    42   15   54 1    
    43   15   55 1    
    44   16   18 1    
    45   16   21 1    
    46   16   56 1    
    47   16   57 1    
    48   19   32 1    
    49   20   22 1    
    50   20   25 1    
    51   20   58 1    
    52   21   23 1    
    53   21   24 1    
    54   21   59 1    
    55   22   24 am   BACKBONE|DICT|INTERRES
    56   22   26 2    
    57   23   27 2    
    58   23   30 1    
    59   24   60 1    
    60   25   32 1    
    61   28   32 2    
    62   29   32 2    
@<TRIPOS>SUBSTRUCTURE
     1 <0>         1 GROUP             0       ****    0 ROOT    
@<TRIPOS>MOLECULE
fkb1a-ligand
60   62    1
SMALL
USER_CHARGES


@<TRIPOS>ATOM
      1 C1        -32.9293   36.7651   28.8742 C.3       1 <0>        -0.1800 
      2 C2        -42.2413   31.0344   38.1249 C.3       1 <0>        -0.0650 
      3 C3        -37.7100   40.4580   31.7194 C.ar      1 <0>        -0.1150 
      4 C4        -36.9718   40.0216   30.6020 C.ar      1 <0>        -0.1150 
      5 C5        -38.3758   39.5231   32.5352 C.ar      1 <0>        -0.1150 
      6 C6        -36.9008   38.6477   30.3015 C.ar      1 <0>        -0.1150 
      7 C7        -38.3045   38.1482   32.2343 C.ar      1 <0>        -0.1150 
      8 C8        -40.7329   32.4636   36.7097 C.ar      1 <0>        -0.1150 
      9 C9        -39.8504   30.3769   37.6319 C.ar      1 <0>        -0.1150 
     10 C10       -39.4972   32.7163   36.0903 C.ar      1 <0>        -0.1150 
     11 C11       -38.6141   30.6181   37.0046 C.ar      1 <0>        -0.1150 
     12 C12       -36.6644   34.1392   37.3186 C.3       1 <0>         0.0588 
     13 C13       -35.3142   33.9417   38.0303 C.3       1 <0>         0.0842 
     14 C14       -34.2172   34.4463   35.6275 C.3       1 <0>         0.0842 
     15 C15       -33.5419   35.3749   29.0405 C.3       1 <0>         0.1900 
     16 C16       -37.5247   36.2291   30.7588 C.3       1 <0>        -0.0050 
     17 C17       -40.9091   31.2967   37.4765 C.ar      1 <0>        -0.1150 
     18 C18       -37.5645   37.7065   31.1161 C.ar      1 <0>        -0.1150 
     19 C19       -38.4498   31.7842   36.2334 C.ar      1 <0>         0.1567 
     20 C20       -35.6595   34.6442   35.1022 C.3       1 <0>         0.1321 
     21 C21       -36.3934   35.3692   31.3815 C.3       1 <0>         0.1400 
     22 C22       -35.6713   34.4908   33.5737 C.2       1 <0>         0.5000 
     23 C23       -35.0151   35.8283   30.8847 C.2       1 <0>         0.5100 
     24 N1        -36.4550   35.3132   32.8490 N.am      1 <0>        -0.5000 
     25 N2        -36.6284   33.8096   35.8722 N.pl3     1 <0>        -0.5376 
     26 O1        -34.9373   33.6501   33.0502 O.2       1 <0>        -0.5000 
     27 O2        -34.2050   36.4683   31.5584 O.2       1 <0>        -0.4300 
     28 O3        -37.1102   31.9845   34.0213 O.2       1 <0>        -0.4680 
     29 O4        -35.8357   31.3350   36.1347 O.2       1 <0>        -0.4680 
     30 O5        -34.8296   35.3986   29.6277 O.3       1 <0>        -0.3300 
     31 S1        -34.0436   35.0162   37.3342 S.3       1 <0>        -0.3350 
     32 S2        -36.8791   32.1251   35.4650 S.o2      1 <0>         0.8327 
     33 H1        -32.1106   36.7239   28.1687 H         1 <0>         0.0600 
     34 H2        -33.6665   37.4759   28.5030 H         1 <0>         0.0600 
     35 H3        -32.5228   37.1568   29.8068 H         1 <0>         0.0600 
     36 H4        -42.6942   31.9594   38.4858 H         1 <0>         0.0600 
     37 H5        -42.9107   30.5661   37.4062 H         1 <0>         0.0600 
     38 H6        -42.1108   30.3651   38.9689 H         1 <0>         0.0600 
     39 H7        -37.7787   41.5121   31.9403 H         1 <0>         0.1150 
     40 H8        -36.4688   40.7416   29.9732 H         1 <0>         0.1150 
     41 H9        -38.9492   39.8619   33.3857 H         1 <0>         0.1150 
     42 H10       -36.3448   38.3171   29.4363 H         1 <0>         0.1150 
     43 H11       -38.8322   37.4371   32.8549 H         1 <0>         0.1150 
     44 H12       -41.5462   33.1645   36.6015 H         1 <0>         0.1150 
     45 H13       -39.9832   29.4810   38.2201 H         1 <0>         0.1150 
     46 H14       -39.3501   33.6130   35.5046 H         1 <0>         0.1150 
     47 H15       -37.7991   29.9167   37.1155 H         1 <0>         0.1150 
     48 H16       -37.4177   33.5412   37.8267 H         1 <0>         0.0733 
     49 H17       -36.9949   35.1662   37.4354 H         1 <0>         0.0733 
     50 H18       -34.9802   32.9061   37.9670 H         1 <0>         0.0600 
     51 H19       -35.4158   34.1729   39.0904 H         1 <0>         0.0600 
     52 H20       -33.9276   33.3951   35.5765 H         1 <0>         0.0600 
     53 H21       -33.5003   35.0001   35.0196 H         1 <0>         0.0600 
     54 H22       -32.8769   34.7270   29.6143 H         1 <0>         0.0300 
     55 H23       -33.6663   34.9190   28.0593 H         1 <0>         0.0300 
     56 H24       -38.5020   35.8023   30.9686 H         1 <0>         0.0600 
     57 H25       -37.4516   36.1570   29.6715 H         1 <0>         0.0600 
     58 H26       -35.9190   35.6874   35.2888 H         1 <0>         0.0733 
     59 H27       -36.5104   34.3465   31.0315 H         1 <0>         0.0600 
     60 H28       -37.0385   35.9862   33.3215 H         1 <0>         0.3000 
@<TRIPOS>BOND
     1    1   15 1    
     2    1   33 1    
     3    1   34 1    
     4    1   35 1    
     5    2   17 1    
     6    2   36 1    
     7    2   37 1    
     8    2   38 1    
     9    3    4 ar   
    10    3    5 ar   
    11    3   39 1    
    12    4    6 ar   
    13    4   40 1    
    14    5    7 ar   
    15    5   41 1    
    16    6   18 ar   
    17    6   42 1    
    18    7   18 ar   
    19    7   43 1    
    20    8   10 ar   
    21    8   17 ar   
    22    8   44 1    
    23    9   11 ar   
    24    9   17 ar   
    25    9   45 1    
    26   10   19 ar   
    27   10   46 1    
    28   11   19 ar   
    29   11   47 1    
    30   12   13 1    
    31   12   25 1    
    32   12   48 1    
    33   12   49 1    
    34   13   31 1    
    35   13   50 1    
    36   13   51 1    
    37   14   20 1    
    38   14   31 1    
    39   14   52 1    
    40   14   53 1    
    41   15   30 1    
    42   15   54 1    
    43   15   55 1    
    44   16   18 1    
    45   16   21 1    
    46   16   56 1    
    47   16   57 1    
    48   19   32 1    
    49   20   22 1    
    50   20   25 1    
    51   20   58 1    
    52   21   23 1    
    53   21   24 1    
    54   21   59 1    
    55   22   24 am   BACKBONE|DICT|INTERRES
    56   22   26 2    
    57   23   27 2    
    58   23   30 1    
    59   24   60 1    
    60   25   32 1    
    61   28   32 2    
    62   29   32 2    
@<TRIPOS>SUBSTRUCTURE
     1 <0>         1 GROUP             0       ****    0 ROOT    
@<TRIPOS>MOLECULE
fkb1a-ligand
60   62    1
SMALL
USER_CHARGES


@<TRIPOS>ATOM
      1 C1        -33.0364   35.5689   28.6307 C.3       1 <0>        -0.1800 
      2 C2        -42.1099   30.5082   38.1716 C.3       1 <0>        -0.0650 
      3 C3        -37.7107   40.7226   31.6159 C.ar      1 <0>        -0.1150 
      4 C4        -37.1179   40.1943   30.4543 C.ar      1 <0>        -0.1150 
      5 C5        -38.2868   39.8590   32.5681 C.ar      1 <0>        -0.1150 
      6 C6        -37.0880   38.8026   30.2535 C.ar      1 <0>        -0.1150 
      7 C7        -38.2495   38.4644   32.3731 C.ar      1 <0>        -0.1150 
      8 C8        -39.6704   30.1344   37.6579 C.ar      1 <0>        -0.1150 
      9 C9        -40.7695   32.1424   36.7907 C.ar      1 <0>        -0.1150 
     10 C10       -38.4705   30.5154   37.0291 C.ar      1 <0>        -0.1150 
     11 C11       -39.5699   32.5304   36.1687 C.ar      1 <0>        -0.1150 
     12 C12       -36.9049   34.1687   37.4737 C.3       1 <0>         0.0588 
     13 C13       -35.5763   34.0289   38.2368 C.3       1 <0>         0.0842 
     14 C14       -34.4071   34.7157   35.9232 C.3       1 <0>         0.0842 
     15 C15       -33.6872   36.7633   29.2993 C.3       1 <0>         0.1900 
     16 C16       -37.5849   36.4294   30.9975 C.3       1 <0>        -0.0050 
     17 C17       -40.8196   30.9399   37.5250 C.ar      1 <0>        -0.1150 
     18 C18       -37.6395   37.9326   31.2180 C.ar      1 <0>        -0.1150 
     19 C19       -38.4309   31.7082   36.2840 C.ar      1 <0>         0.1567 
     20 C20       -35.8314   34.8245   35.3252 C.3       1 <0>         0.1321 
     21 C21       -36.3834   35.6611   31.5992 C.3       1 <0>         0.1400 
     22 C22       -35.7428   34.7230   33.7937 C.2       1 <0>         0.5000 
     23 C23       -35.0611   36.3578   31.2107 C.2       1 <0>         0.5100 
     24 N1        -36.5107   35.5466   33.0567 N.am      1 <0>        -0.5000 
     25 N2        -36.7842   33.9029   36.0163 N.pl3     1 <0>        -0.5376 
     26 O1        -34.9464   33.9348   33.2822 O.2       1 <0>        -0.5000 
     27 O2        -34.2929   36.9042   32.0064 O.2       1 <0>        -0.4300 
     28 O3        -37.1272   32.1493   34.0791 O.2       1 <0>        -0.4680 
     29 O4        -35.7891   31.4984   36.1518 O.2       1 <0>        -0.4680 
     30 O5        -34.8942   36.3091   29.8826 O.3       1 <0>        -0.3300 
     31 S1        -34.3651   35.2329   37.6542 S.3       1 <0>        -0.3350 
     32 S2        -36.9015   32.2281   35.5269 S.o2      1 <0>         0.8327 
     33 H1        -32.1076   35.8817   28.1639 H         1 <0>         0.0600 
     34 H2        -32.8048   34.7981   29.3689 H         1 <0>         0.0600 
     35 H3        -33.6860   35.1404   27.8666 H         1 <0>         0.0600 
     36 H4        -42.2503   29.4318   38.0702 H         1 <0>         0.0600 
     37 H5        -42.0927   30.7686   39.2280 H         1 <0>         0.0600 
     38 H6        -42.9517   31.0117   37.7067 H         1 <0>         0.0600 
     39 H7        -37.7508   41.7904   31.7651 H         1 <0>         0.1150 
     40 H8        -36.6921   40.8502   29.7116 H         1 <0>         0.1150 
     41 H9        -38.7664   40.2669   33.4450 H         1 <0>         0.1150 
     42 H10       -36.6303   38.4028   29.3607 H         1 <0>         0.1150 
     43 H11       -38.6939   37.8103   33.1086 H         1 <0>         0.1150 
     44 H12       -39.7077   29.2181   38.2278 H         1 <0>         0.1150 
     45 H13       -41.6478   32.7647   36.7031 H         1 <0>         0.1150 
     46 H14       -37.5873   29.9007   37.1247 H         1 <0>         0.1150 
     47 H15       -39.5184   33.4524   35.6076 H         1 <0>         0.1150 
     48 H16       -37.6344   33.5014   37.9274 H         1 <0>         0.0733 
     49 H17       -37.3081   35.1653   37.6161 H         1 <0>         0.0733 
     50 H18       -35.1644   33.0252   38.1284 H         1 <0>         0.0600 
     51 H19       -35.7383   34.1903   39.3030 H         1 <0>         0.0600 
     52 H20       -34.0335   33.6927   35.8537 H         1 <0>         0.0600 
     53 H21       -33.7059   35.3455   35.3725 H         1 <0>         0.0600 
     54 H22       -33.9014   37.5452   28.5706 H         1 <0>         0.0300 
     55 H23       -32.9873   37.1646   30.0315 H         1 <0>         0.0300 
     56 H24       -38.5102   36.0058   31.3668 H         1 <0>         0.0600 
     57 H25       -37.6142   36.2459   29.9229 H         1 <0>         0.0600 
     58 H26       -36.1752   35.8406   35.5267 H         1 <0>         0.0733 
     59 H27       -36.3837   34.6492   31.1888 H         1 <0>         0.0600 
     60 H28       -37.1444   36.1772   33.5244 H         1 <0>         0.3000 
@<TRIPOS>BOND
     1    1   15 1    
     2    1   33 1    
     3    1   34 1    
     4    1   35 1    
     5    2   17 1    
     6    2   36 1    
     7    2   37 1    
     8    2   38 1    
     9    3    4 ar   
    10    3    5 ar   
    11    3   39 1    
    12    4    6 ar   
    13    4   40 1    
    14    5    7 ar   
    15    5   41 1    
    16    6   18 ar   
    17    6   42 1    
    18    7   18 ar   
    19    7   43 1    
    20    8   10 ar   
    21    8   17 ar   
    22    8   44 1    
    23    9   11 ar   
    24    9   17 ar   
    25    9   45 1    
    26   10   19 ar   
    27   10   46 1    
    28   11   19 ar   
    29   11   47 1    
    30   12   13 1    
    31   12   25 1    
    32   12   48 1    
    33   12   49 1    
    34   13   31 1    
    35   13   50 1    
    36   13   51 1    
    37   14   20 1    
    38   14   31 1    
    39   14   52 1    
    40   14   53 1    
    41   15   30 1    
    42   15   54 1    
    43   15   55 1    
    44   16   18 1    
    45   16   21 1    
    46   16   56 1    
    47   16   57 1    
    48   19   32 1    
    49   20   22 1    
    50   20   25 1    
    51   20   58 1    
    52   21   23 1    
    53   21   24 1    
    54   21   59 1    
    55   22   24 am   BACKBONE|DICT|INTERRES
    56   22   26 2    
    57   23   27 2    
    58   23   30 1    
    59   24   60 1    
    60   25   32 1    
    61   28   32 2    
    62   29   32 2    
@<TRIPOS>SUBSTRUCTURE
     1 <0>         1 GROUP             0       ****    0 ROOT    
@<TRIPOS>MOLECULE
fkb1a-ligand
60   62    1
SMALL
USER_CHARGES


@<TRIPOS>ATOM
      1 C1        -38.4893   38.9436   31.2948 C.3       1 <0>        -0.1800 
      2 C2        -38.6465   31.1269   37.2769 C.3       1 <0>        -0.0650 
      3 C3        -29.5973   39.7967   34.8552 C.ar      1 <0>        -0.1150 
      4 C4        -29.8877   39.2779   33.5786 C.ar      1 <0>        -0.1150 
      5 C5        -30.5444   40.5992   35.5210 C.ar      1 <0>        -0.1150 
      6 C6        -31.1234   39.5651   32.9684 C.ar      1 <0>        -0.1150 
      7 C7        -31.7820   40.8822   34.9112 C.ar      1 <0>        -0.1150 
      8 C8        -36.6879   32.4104   36.2981 C.ar      1 <0>        -0.1150 
      9 C9        -38.9555   33.1664   35.8072 C.ar      1 <0>        -0.1150 
     10 C10       -36.1672   33.4573   35.5122 C.ar      1 <0>        -0.1150 
     11 C11       -38.4370   34.2100   35.0164 C.ar      1 <0>        -0.1150 
     12 C12       -34.9445   33.7015   32.4945 C.3       1 <0>         0.0588 
     13 C13       -35.1993   33.7921   30.9848 C.3       1 <0>         0.0842 
     14 C14       -33.9553   36.1340   31.0828 C.3       1 <0>         0.0842 
     15 C15       -38.2436   39.4706   32.7157 C.3       1 <0>         0.1900 
     16 C16       -33.4130   40.6652   32.9780 C.3       1 <0>        -0.0050 
     17 C17       -38.0834   32.2577   36.4415 C.ar      1 <0>        -0.1150 
     18 C18       -32.0765   40.3652   33.6326 C.ar      1 <0>        -0.1150 
     19 C19       -37.0450   34.3421   34.8508 C.ar      1 <0>         0.1567 
     20 C20       -33.8323   35.9413   32.6198 C.3       1 <0>         0.1321 
     21 C21       -34.5550   39.6648   33.2891 C.3       1 <0>         0.1400 
     22 C22       -33.6904   37.3024   33.3262 C.2       1 <0>         0.5000 
     23 C23       -35.9270   40.1332   32.7707 C.2       1 <0>         0.5100 
     24 N1        -34.2933   38.3445   32.7320 N.am      1 <0>        -0.5000 
     25 N2        -34.8891   35.0259   33.1687 N.pl3     1 <0>        -0.5376 
     26 O1        -33.1053   37.3805   34.4049 O.2       1 <0>        -0.5000 
     27 O2        -36.1082   41.1647   32.1216 O.2       1 <0>        -0.4300 
     28 O3        -36.1388   36.7750   34.7192 O.2       1 <0>        -0.4680 
     29 O4        -37.3049   35.8514   32.6582 O.2       1 <0>        -0.4680 
     30 O5        -36.8944   39.2577   33.1107 O.3       1 <0>        -0.3300 
     31 S1        -33.8063   34.5878   30.1687 S.3       1 <0>        -0.3350 
     32 S2        -36.4054   35.6562   33.8038 S.o2      1 <0>         0.8327 
     33 H1        -39.5395   39.0404   31.0237 H         1 <0>         0.0600 
     34 H2        -37.9048   39.4942   30.5584 H         1 <0>         0.0600 
     35 H3        -38.2266   37.8890   31.2152 H         1 <0>         0.0600 
     36 H4        -38.9753   30.3118   36.6311 H         1 <0>         0.0600 
     37 H5        -37.8977   30.7368   37.9676 H         1 <0>         0.0600 
     38 H6        -39.5002   31.4692   37.8631 H         1 <0>         0.0600 
     39 H7        -28.6505   39.5757   35.3249 H         1 <0>         0.1150 
     40 H8        -29.1681   38.6538   33.0685 H         1 <0>         0.1150 
     41 H9        -30.3244   40.9950   36.5013 H         1 <0>         0.1150 
     42 H10       -31.3477   39.1536   31.9954 H         1 <0>         0.1150 
     43 H11       -32.5080   41.4920   35.4294 H         1 <0>         0.1150 
     44 H12       -36.0113   31.7257   36.7890 H         1 <0>         0.1150 
     45 H13       -40.0235   33.0743   35.9335 H         1 <0>         0.1150 
     46 H14       -35.0981   33.5718   35.4109 H         1 <0>         0.1150 
     47 H15       -39.1093   34.9237   34.5671 H         1 <0>         0.1150 
     48 H16       -35.7286   33.0846   32.9276 H         1 <0>         0.0733 
     49 H17       -34.0086   33.1725   32.6795 H         1 <0>         0.0733 
     50 H18       -36.1105   34.3508   30.7730 H         1 <0>         0.0600 
     51 H19       -35.3325   32.7962   30.5617 H         1 <0>         0.0600 
     52 H20       -34.9172   36.5783   30.8233 H         1 <0>         0.0600 
     53 H21       -33.1779   36.8054   30.7137 H         1 <0>         0.0600 
     54 H22       -38.8873   38.9371   33.4155 H         1 <0>         0.0300 
     55 H23       -38.5103   40.5261   32.7891 H         1 <0>         0.0300 
     56 H24       -33.7087   41.6604   33.3094 H         1 <0>         0.0600 
     57 H25       -33.2664   40.7648   31.9022 H         1 <0>         0.0600 
     58 H26       -32.8761   35.4444   32.7903 H         1 <0>         0.0733 
     59 H27       -34.6307   39.5662   34.3734 H         1 <0>         0.0600 
     60 H28       -34.7591   38.1563   31.8586 H         1 <0>         0.3000 
@<TRIPOS>BOND
     1    1   15 1    
     2    1   33 1    
     3    1   34 1    
     4    1   35 1    
     5    2   17 1    
     6    2   36 1    
     7    2   37 1    
     8    2   38 1    
     9    3    4 ar   
    10    3    5 ar   
    11    3   39 1    
    12    4    6 ar   
    13    4   40 1    
    14    5    7 ar   
    15    5   41 1    
    16    6   18 ar   
    17    6   42 1    
    18    7   18 ar   
    19    7   43 1    
    20    8   10 ar   
    21    8   17 ar   
    22    8   44 1    
    23    9   11 ar   
    24    9   17 ar   
    25    9   45 1    
    26   10   19 ar   
    27   10   46 1    
    28   11   19 ar   
    29   11   47 1    
    30   12   13 1    
    31   12   25 1    
    32   12   48 1    
    33   12   49 1    
    34   13   31 1    
    35   13   50 1    
    36   13   51 1    
    37   14   20 1    
    38   14   31 1    
    39   14   52 1    
    40   14   53 1    
    41   15   30 1    
    42   15   54 1    
    43   15   55 1    
    44   16   18 1    
    45   16   21 1    
    46   16   56 1    
    47   16   57 1    
    48   19   32 1    
    49   20   22 1    
    50   20   25 1    
    51   20   58 1    
    52   21   23 1    
    53   21   24 1    
    54   21   59 1    
    55   22   24 am   BACKBONE|DICT|INTERRES
    56   22   26 2    
    57   23   27 2    
    58   23   30 1    
    59   24   60 1    
    60   25   32 1    
    61   28   32 2    
    62   29   32 2    
@<TRIPOS>SUBSTRUCTURE
     1 <0>         1 GROUP             0       ****    0 ROOT    
@<TRIPOS>MOLECULE
fkb1a-ligand
60   62    1
SMALL
USER_CHARGES


@<TRIPOS>ATOM
      1 C1        -34.2380   35.5840   29.3923 C.3       1 <0>        -0.1800 
      2 C2        -30.4024   46.9424   30.4236 C.3       1 <0>        -0.0650 
      3 C3        -38.9974   37.9654   32.8651 C.ar      1 <0>        -0.1150 
      4 C4        -38.1107   37.2264   33.6704 C.ar      1 <0>        -0.1150 
      5 C5        -38.5051   38.9764   32.0220 C.ar      1 <0>        -0.1150 
      6 C6        -36.7328   37.5159   33.6504 C.ar      1 <0>        -0.1150 
      7 C7        -37.1247   39.2531   31.9881 C.ar      1 <0>        -0.1150 
      8 C8        -31.1142   46.0353   32.6865 C.ar      1 <0>        -0.1150 
      9 C9        -30.5629   44.4623   30.9038 C.ar      1 <0>        -0.1150 
     10 C10       -31.3848   44.9588   33.5541 C.ar      1 <0>        -0.1150 
     11 C11       -30.8875   43.3877   31.7538 C.ar      1 <0>        -0.1150 
     12 C12       -28.9819   41.4598   33.6691 C.3       1 <0>         0.0588 
     13 C13       -28.2612   41.5959   35.0189 C.3       1 <0>         0.0842 
     14 C14       -29.9262   39.6542   35.8538 C.3       1 <0>         0.0842 
     15 C15       -32.9673   35.7145   30.2442 C.3       1 <0>         0.1900 
     16 C16       -34.7499   38.8963   32.7750 C.3       1 <0>        -0.0050 
     17 C17       -30.6977   45.7894   31.3606 C.ar      1 <0>        -0.1150 
     18 C18       -36.2281   38.5272   32.8018 C.ar      1 <0>        -0.1150 
     19 C19       -31.2643   43.6362   33.0862 C.ar      1 <0>         0.1567 
     20 C20       -30.5316   39.6778   34.4269 C.3       1 <0>         0.1321 
     21 C21       -33.7088   37.8395   33.2234 C.3       1 <0>         0.1400 
     22 C22       -31.9407   39.0549   34.4544 C.2       1 <0>         0.5000 
     23 C23       -33.6646   36.5526   32.3830 C.2       1 <0>         0.5100 
     24 N1        -32.3835   38.4488   33.3417 N.am      1 <0>        -0.5000 
     25 N2        -30.3997   41.0340   33.8002 N.pl3     1 <0>        -0.5376 
     26 O1        -32.6154   39.1085   35.4829 O.2       1 <0>        -0.5000 
     27 O2        -34.1027   35.4695   32.7746 O.2       1 <0>        -0.4300 
     28 O3        -32.9101   41.7607   33.8331 O.2       1 <0>        -0.4680 
     29 O4        -31.3134   42.7133   35.5757 O.2       1 <0>        -0.4680 
     30 O5        -33.0998   36.7693   31.1830 O.3       1 <0>        -0.3300 
     31 S1        -28.1518   39.9986   35.8516 S.3       1 <0>        -0.3350 
     32 S2        -31.5832   42.2687   34.2008 S.o2      1 <0>         0.8327 
     33 H1        -34.1216   34.7881   28.6554 H         1 <0>         0.0600 
     34 H2        -35.1037   35.3442   30.0116 H         1 <0>         0.0600 
     35 H3        -34.4503   36.5096   28.8588 H         1 <0>         0.0600 
     36 H4        -30.9467   47.8381   30.7215 H         1 <0>         0.0600 
     37 H5        -29.3366   47.1700   30.4276 H         1 <0>         0.0600 
     38 H6        -30.6975   46.6919   29.4030 H         1 <0>         0.0600 
     39 H7        -40.0559   37.7509   32.8930 H         1 <0>         0.1150 
     40 H8        -38.4915   36.4506   34.3157 H         1 <0>         0.1150 
     41 H9        -39.1869   39.5421   31.4034 H         1 <0>         0.1150 
     42 H10       -36.0781   36.9542   34.2978 H         1 <0>         0.1150 
     43 H11       -36.7585   40.0394   31.3445 H         1 <0>         0.1150 
     44 H12       -31.2187   47.0493   33.0463 H         1 <0>         0.1150 
     45 H13       -30.2526   44.2669   29.8871 H         1 <0>         0.1150 
     46 H14       -31.6920   45.1521   34.5700 H         1 <0>         0.1150 
     47 H15       -30.8115   42.3755   31.3905 H         1 <0>         0.1150 
     48 H16       -28.9107   42.4067   33.1395 H         1 <0>         0.0733 
     49 H17       -28.4527   40.7363   33.0463 H         1 <0>         0.0733 
     50 H18       -28.7661   42.3101   35.6692 H         1 <0>         0.0600 
     51 H19       -27.2495   41.9728   34.8671 H         1 <0>         0.0600 
     52 H20       -30.4230   40.3809   36.4985 H         1 <0>         0.0600 
     53 H21       -30.0676   38.6774   36.3183 H         1 <0>         0.0600 
     54 H22       -32.1193   35.9397   29.5995 H         1 <0>         0.0300 
     55 H23       -32.7393   34.7711   30.7427 H         1 <0>         0.0300 
     56 H24       -34.5098   39.2359   31.7686 H         1 <0>         0.0600 
     57 H25       -34.6535   39.7751   33.4128 H         1 <0>         0.0600 
     58 H26       -29.9336   38.9917   33.8239 H         1 <0>         0.0733 
     59 H27       -33.9893   37.5272   34.2291 H         1 <0>         0.0600 
     60 H28       -31.7921   38.4253   32.5217 H         1 <0>         0.3000 
@<TRIPOS>BOND
     1    1   15 1    
     2    1   33 1    
     3    1   34 1    
     4    1   35 1    
     5    2   17 1    
     6    2   36 1    
     7    2   37 1    
     8    2   38 1    
     9    3    4 ar   
    10    3    5 ar   
    11    3   39 1    
    12    4    6 ar   
    13    4   40 1    
    14    5    7 ar   
    15    5   41 1    
    16    6   18 ar   
    17    6   42 1    
    18    7   18 ar   
    19    7   43 1    
    20    8   10 ar   
    21    8   17 ar   
    22    8   44 1    
    23    9   11 ar   
    24    9   17 ar   
    25    9   45 1    
    26   10   19 ar   
    27   10   46 1    
    28   11   19 ar   
    29   11   47 1    
    30   12   13 1    
    31   12   25 1    
    32   12   48 1    
    33   12   49 1    
    34   13   31 1    
    35   13   50 1    
    36   13   51 1    
    37   14   20 1    
    38   14   31 1    
    39   14   52 1    
    40   14   53 1    
    41   15   30 1    
    42   15   54 1    
    43   15   55 1    
    44   16   18 1    
    45   16   21 1    
    46   16   56 1    
    47   16   57 1    
    48   19   32 1    
    49   20   22 1    
    50   20   25 1    
    51   20   58 1    
    52   21   23 1    
    53   21   24 1    
    54   21   59 1    
    55   22   24 am   BACKBONE|DICT|INTERRES
    56   22   26 2    
    57   23   27 2    
    58   23   30 1    
    59   24   60 1    
    60   25   32 1    
    61   28   32 2    
    62   29   32 2    
@<TRIPOS>SUBSTRUCTURE
     1 <0>         1 GROUP             0       ****    0 ROOT    
@<TRIPOS>MOLECULE
fkb1a-ligand
60   62    1
SMALL
USER_CHARGES


@<TRIPOS>ATOM
      1 C1        -32.1075   33.5493   30.1944 C.3       1 <0>        -0.1800 
      2 C2        -32.6450   39.1512   39.4317 C.3       1 <0>        -0.0650 
      3 C3        -37.7108   40.2497   31.8252 C.ar      1 <0>        -0.1150 
      4 C4        -38.2751   39.1425   32.4872 C.ar      1 <0>        -0.1150 
      5 C5        -37.0331   40.0686   30.6053 C.ar      1 <0>        -0.1150 
      6 C6        -38.1692   37.8558   31.9237 C.ar      1 <0>        -0.1150 
      7 C7        -36.9260   38.7833   30.0452 C.ar      1 <0>        -0.1150 
      8 C8        -34.7512   38.7103   38.0988 C.ar      1 <0>        -0.1150 
      9 C9        -32.6702   37.6515   37.3822 C.ar      1 <0>        -0.1150 
     10 C10       -35.4292   38.1054   37.0231 C.ar      1 <0>        -0.1150 
     11 C11       -33.3456   37.0458   36.3037 C.ar      1 <0>        -0.1150 
     12 C12       -35.6436   34.3033   36.4308 C.3       1 <0>         0.0588 
     13 C13       -37.1017   34.2007   36.9129 C.3       1 <0>         0.0842 
     14 C14       -37.7134   33.7687   34.3177 C.3       1 <0>         0.0842 
     15 C15       -32.6640   34.9496   29.9063 C.3       1 <0>         0.1900 
     16 C16       -37.4340   36.2903   30.0552 C.3       1 <0>        -0.0050 
     17 C17       -33.3706   38.4850   38.2804 C.ar      1 <0>        -0.1150 
     18 C18       -37.4914   37.6692   30.6993 C.ar      1 <0>        -0.1150 
     19 C19       -34.7245   37.2744   36.1302 C.ar      1 <0>         0.1567 
     20 C20       -36.1920   33.8683   34.0721 C.3       1 <0>         0.1321 
     21 C21       -36.3007   35.3201   30.4749 C.3       1 <0>         0.1400 
     22 C22       -35.9133   34.0096   32.5682 C.2       1 <0>         0.5000 
     23 C23       -34.9129   35.7933   29.9836 C.2       1 <0>         0.5100 
     24 N1        -36.3438   35.1154   31.9287 N.am      1 <0>        -0.5000 
     25 N2        -35.5192   34.7931   35.0344 N.pl3     1 <0>        -0.5376 
     26 O1        -35.3655   33.0728   31.9871 O.2       1 <0>        -0.5000 
     27 O2        -34.6919   36.7814   29.2827 O.2       1 <0>        -0.4300 
     28 O3        -34.7757   36.8083   33.5485 O.2       1 <0>        -0.4680 
     29 O4        -36.9912   36.9182   34.7884 O.2       1 <0>        -0.4680 
     30 O5        -33.9957   34.9022   30.3553 O.3       1 <0>        -0.3300 
     31 S1        -38.0702   33.0329   35.9306 S.3       1 <0>        -0.3350 
     32 S2        -35.5778   36.5211   34.7460 S.o2      1 <0>         0.8327 
     33 H1        -31.1165   33.4089   29.7691 H         1 <0>         0.0600 
     34 H2        -32.0451   33.3696   31.2679 H         1 <0>         0.0600 
     35 H3        -32.7521   32.7777   29.7709 H         1 <0>         0.0600 
     36 H4        -32.3923   40.1800   39.1732 H         1 <0>         0.0600 
     37 H5        -33.2719   39.1675   40.3249 H         1 <0>         0.0600 
     38 H6        -31.7229   38.6227   39.6759 H         1 <0>         0.0600 
     39 H7        -37.8081   41.2381   32.2459 H         1 <0>         0.1150 
     40 H8        -38.7981   39.2793   33.4224 H         1 <0>         0.1150 
     41 H9        -36.6064   40.9136   30.0878 H         1 <0>         0.1150 
     42 H10       -38.6206   37.0161   32.4326 H         1 <0>         0.1150 
     43 H11       -36.4283   38.6606   29.0955 H         1 <0>         0.1150 
     44 H12       -35.2911   39.3574   38.7755 H         1 <0>         0.1150 
     45 H13       -31.6115   37.4797   37.5125 H         1 <0>         0.1150 
     46 H14       -36.4822   38.2905   36.8816 H         1 <0>         0.1150 
     47 H15       -32.8105   36.4141   35.6093 H         1 <0>         0.1150 
     48 H16       -35.0737   34.9319   37.1119 H         1 <0>         0.0733 
     49 H17       -35.1748   33.3205   36.4984 H         1 <0>         0.0733 
     50 H18       -37.5912   35.1650   36.8596 H         1 <0>         0.0600 
     51 H19       -37.1321   33.8868   37.9563 H         1 <0>         0.0600 
     52 H20       -38.1888   34.7467   34.2587 H         1 <0>         0.0600 
     53 H21       -38.1862   33.1454   33.5573 H         1 <0>         0.0600 
     54 H22       -32.6239   35.1789   28.8415 H         1 <0>         0.0300 
     55 H23       -32.1118   35.7204   30.4428 H         1 <0>         0.0300 
     56 H24       -38.3878   35.8025   30.2531 H         1 <0>         0.0600 
     57 H25       -37.4132   36.4182   28.9716 H         1 <0>         0.0600 
     58 H26       -35.7975   32.8757   34.2984 H         1 <0>         0.0733 
     59 H27       -36.5014   34.3647   29.9909 H         1 <0>         0.0600 
     60 H28       -36.7285   35.8681   32.4820 H         1 <0>         0.3000 
@<TRIPOS>BOND
     1    1   15 1    
     2    1   33 1    
     3    1   34 1    
     4    1   35 1    
     5    2   17 1    
     6    2   36 1    
     7    2   37 1    
     8    2   38 1    
     9    3    4 ar   
    10    3    5 ar   
    11    3   39 1    
    12    4    6 ar   
    13    4   40 1    
    14    5    7 ar   
    15    5   41 1    
    16    6   18 ar   
    17    6   42 1    
    18    7   18 ar   
    19    7   43 1    
    20    8   10 ar   
    21    8   17 ar   
    22    8   44 1    
    23    9   11 ar   
    24    9   17 ar   
    25    9   45 1    
    26   10   19 ar   
    27   10   46 1    
    28   11   19 ar   
    29   11   47 1    
    30   12   13 1    
    31   12   25 1    
    32   12   48 1    
    33   12   49 1    
    34   13   31 1    
    35   13   50 1    
    36   13   51 1    
    37   14   20 1    
    38   14   31 1    
    39   14   52 1    
    40   14   53 1    
    41   15   30 1    
    42   15   54 1    
    43   15   55 1    
    44   16   18 1    
    45   16   21 1    
    46   16   56 1    
    47   16   57 1    
    48   19   32 1    
    49   20   22 1    
    50   20   25 1    
    51   20   58 1    
    52   21   23 1    
    53   21   24 1    
    54   21   59 1    
    55   22   24 am   BACKBONE|DICT|INTERRES
    56   22   26 2    
    57   23   27 2    
    58   23   30 1    
    59   24   60 1    
    60   25   32 1    
    61   28   32 2    
    62   29   32 2    
@<TRIPOS>SUBSTRUCTURE
     1 <0>         1 GROUP             0       ****    0 ROOT    
@<TRIPOS>MOLECULE
fkb1a-ligand
60   62    1
SMALL
USER_CHARGES


@<TRIPOS>ATOM
      1 C1        -32.3386   37.6225   32.1675 C.3       1 <0>        -0.1800 
      2 C2        -32.6769   39.0779   39.4861 C.3       1 <0>        -0.0650 
      3 C3        -37.3949   40.0064   31.9130 C.ar      1 <0>        -0.1150 
      4 C4        -37.9830   38.8841   32.5256 C.ar      1 <0>        -0.1150 
      5 C5        -36.6995   39.8601   30.6975 C.ar      1 <0>        -0.1150 
      6 C6        -37.8774   37.6158   31.9232 C.ar      1 <0>        -0.1150 
      7 C7        -36.5899   38.5899   30.0977 C.ar      1 <0>        -0.1150 
      8 C8        -32.7528   37.4970   37.5043 C.ar      1 <0>        -0.1150 
      9 C9        -34.7834   38.7087   38.1235 C.ar      1 <0>        -0.1150 
     10 C10       -33.4408   36.8817   36.4391 C.ar      1 <0>        -0.1150 
     11 C11       -35.4716   38.0972   37.0580 C.ar      1 <0>        -0.1150 
     12 C12       -35.7453   34.1782   36.4898 C.3       1 <0>         0.0588 
     13 C13       -37.2498   33.9967   36.7591 C.3       1 <0>         0.0842 
     14 C14       -37.4274   33.5133   34.0920 C.3       1 <0>         0.0842 
     15 C15       -32.6782   36.7656   30.9419 C.3       1 <0>         0.1900 
     16 C16       -37.0949   36.0974   30.0352 C.3       1 <0>        -0.0050 
     17 C17       -33.4225   38.4088   38.3499 C.ar      1 <0>        -0.1150 
     18 C18       -37.1737   37.4605   30.7099 C.ar      1 <0>        -0.1150 
     19 C19       -34.8003   37.1839   36.2222 C.ar      1 <0>         0.1567 
     20 C20       -35.8915   33.7256   34.0694 C.3       1 <0>         0.1321 
     21 C21       -35.9637   35.1295   30.4582 C.3       1 <0>         0.1400 
     22 C22       -35.3888   33.9682   32.6337 C.2       1 <0>         0.5000 
     23 C23       -34.5609   35.6180   30.0536 C.2       1 <0>         0.5100 
     24 N1        -36.1131   34.8098   31.8791 N.am      1 <0>        -0.5000 
     25 N2        -35.4590   34.6885   35.1268 N.pl3     1 <0>        -0.5376 
     26 O1        -34.3936   33.3740   32.2207 O.2       1 <0>        -0.5000 
     27 O2        -33.9928   35.2729   29.0169 O.2       1 <0>        -0.4300 
     28 O3        -34.9486   36.7905   33.6471 O.2       1 <0>        -0.4680 
     29 O4        -37.1073   36.6972   34.9679 O.2       1 <0>        -0.4680 
     30 O5        -34.0524   36.4432   30.9732 O.3       1 <0>        -0.3300 
     31 S1        -37.9865   32.7739   35.6472 S.3       1 <0>        -0.3350 
     32 S2        -35.6718   36.4075   34.8634 S.o2      1 <0>         0.8327 
     33 H1        -31.3071   37.9647   32.1394 H         1 <0>         0.0600 
     34 H2        -32.9793   38.5023   32.2228 H         1 <0>         0.0600 
     35 H3        -32.4621   37.0532   33.0886 H         1 <0>         0.0600 
     36 H4        -32.0926   38.3430   40.0400 H         1 <0>         0.0600 
     37 H5        -31.9961   39.8367   39.0974 H         1 <0>         0.0600 
     38 H6        -33.3632   39.5599   40.1836 H         1 <0>         0.0600 
     39 H7        -37.4832   40.9791   32.3731 H         1 <0>         0.1150 
     40 H8        -38.5185   38.9934   33.4576 H         1 <0>         0.1150 
     41 H9        -36.2554   40.7222   30.2226 H         1 <0>         0.1150 
     42 H10       -38.3451   36.7665   32.3988 H         1 <0>         0.1150 
     43 H11       -36.0720   38.4848   29.1572 H         1 <0>         0.1150 
     44 H12       -31.7088   37.2719   37.6659 H         1 <0>         0.1150 
     45 H13       -35.2985   39.4180   38.7557 H         1 <0>         0.1150 
     46 H14       -32.9311   36.1885   35.7865 H         1 <0>         0.1150 
     47 H15       -36.5075   38.3401   36.8786 H         1 <0>         0.1150 
     48 H16       -35.3222   34.8454   37.2389 H         1 <0>         0.0733 
     49 H17       -35.2303   33.2261   36.6268 H         1 <0>         0.0733 
     50 H18       -37.7813   34.9393   36.6516 H         1 <0>         0.0600 
     51 H19       -37.4049   33.6646   37.7851 H         1 <0>         0.0600 
     52 H20       -37.9579   34.4560   33.9567 H         1 <0>         0.0600 
     53 H21       -37.7416   32.8584   33.2771 H         1 <0>         0.0600 
     54 H22       -32.1037   35.8396   30.9614 H         1 <0>         0.0300 
     55 H23       -32.4340   37.2839   30.0146 H         1 <0>         0.0300 
     56 H24       -38.0549   35.5994   30.1755 H         1 <0>         0.0600 
     57 H25       -37.0284   36.2706   28.9661 H         1 <0>         0.0600 
     58 H26       -35.4516   32.7622   34.3311 H         1 <0>         0.0733 
     59 H27       -36.1114   34.1886   29.9271 H         1 <0>         0.0600 
     60 H28       -36.8696   35.2873   32.3432 H         1 <0>         0.3000 
@<TRIPOS>BOND
     1    1   15 1    
     2    1   33 1    
     3    1   34 1    
     4    1   35 1    
     5    2   17 1    
     6    2   36 1    
     7    2   37 1    
     8    2   38 1    
     9    3    4 ar   
    10    3    5 ar   
    11    3   39 1    
    12    4    6 ar   
    13    4   40 1    
    14    5    7 ar   
    15    5   41 1    
    16    6   18 ar   
    17    6   42 1    
    18    7   18 ar   
    19    7   43 1    
    20    8   10 ar   
    21    8   17 ar   
    22    8   44 1    
    23    9   11 ar   
    24    9   17 ar   
    25    9   45 1    
    26   10   19 ar   
    27   10   46 1    
    28   11   19 ar   
    29   11   47 1    
    30   12   13 1    
    31   12   25 1    
    32   12   48 1    
    33   12   49 1    
    34   13   31 1    
    35   13   50 1    
    36   13   51 1    
    37   14   20 1    
    38   14   31 1    
    39   14   52 1    
    40   14   53 1    
    41   15   30 1    
    42   15   54 1    
    43   15   55 1    
    44   16   18 1    
    45   16   21 1    
    46   16   56 1    
    47   16   57 1    
    48   19   32 1    
    49   20   22 1    
    50   20   25 1    
    51   20   58 1    
    52   21   23 1    
    53   21   24 1    
    54   21   59 1    
    55   22   24 am   BACKBONE|DICT|INTERRES
    56   22   26 2    
    57   23   27 2    
    58   23   30 1    
    59   24   60 1    
    60   25   32 1    
    61   28   32 2    
    62   29   32 2    
@<TRIPOS>SUBSTRUCTURE
     1 <0>         1 GROUP             0       ****    0 ROOT    
@<TRIPOS>MOLECULE
fkb1a-ligand
60   62    1
SMALL
USER_CHARGES


@<TRIPOS>ATOM
      1 C1        -39.2286   38.3410   30.6407 C.3       1 <0>        -0.1800 
      2 C2        -33.7522   39.2797   41.6518 C.3       1 <0>        -0.0650 
      3 C3        -33.7826   32.2348   31.1019 C.ar      1 <0>        -0.1150 
      4 C4        -34.9107   32.8862   30.5686 C.ar      1 <0>        -0.1150 
      5 C5        -32.6748   32.9912   31.5272 C.ar      1 <0>        -0.1150 
      6 C6        -34.9252   34.2884   30.4435 C.ar      1 <0>        -0.1150 
      7 C7        -32.6987   34.3956   31.4235 C.ar      1 <0>        -0.1150 
      8 C8        -35.2900   39.0983   39.6343 C.ar      1 <0>        -0.1150 
      9 C9        -32.9865   38.3042   39.4515 C.ar      1 <0>        -0.1150 
     10 C10       -35.5292   38.7210   38.2974 C.ar      1 <0>        -0.1150 
     11 C11       -33.2197   37.9280   38.1159 C.ar      1 <0>        -0.1150 
     12 C12       -35.5108   35.2160   37.0147 C.3       1 <0>         0.0588 
     13 C13       -36.7492   34.4499   37.5041 C.3       1 <0>         0.0842 
     14 C14       -37.7150   34.8707   34.9954 C.3       1 <0>         0.0842 
     15 C15       -38.0138   39.2554   30.4290 C.3       1 <0>         0.1900 
     16 C16       -33.8409   36.5817   30.8191 C.3       1 <0>        -0.0050 
     17 C17       -34.0195   38.8861   40.2139 C.ar      1 <0>        -0.1150 
     18 C18       -33.8227   35.0557   30.8807 C.ar      1 <0>        -0.1150 
     19 C19       -34.4923   38.1326   37.5464 C.ar      1 <0>         0.1567 
     20 C20       -36.3758   35.5954   34.7379 C.3       1 <0>         0.1321 
     21 C21       -35.0338   37.2874   31.5154 C.3       1 <0>         0.1400 
     22 C22       -36.4896   36.4973   33.4970 C.2       1 <0>         0.5000 
     23 C23       -36.1940   37.6854   30.5748 C.2       1 <0>         0.5100 
     24 N1        -35.3759   36.5583   32.7450 N.am      1 <0>        -0.5000 
     25 N2        -35.8548   36.2298   35.9898 N.pl3     1 <0>        -0.5376 
     26 O1        -37.5350   37.0981   33.2621 O.2       1 <0>        -0.5000 
     27 O2        -36.4358   37.1506   29.4913 O.2       1 <0>        -0.4300 
     28 O3        -33.5307   37.1268   35.2807 O.2       1 <0>        -0.4680 
     29 O4        -35.5308   38.7068   35.1989 O.2       1 <0>        -0.4680 
     30 O5        -36.8635   38.7404   31.0810 O.3       1 <0>        -0.3300 
     31 S1        -37.5284   33.5073   36.1715 S.3       1 <0>        -0.3350 
     32 S2        -34.7919   37.6182   35.8568 S.o2      1 <0>         0.8327 
     33 H1        -40.1100   38.7634   30.1687 H         1 <0>         0.0600 
     34 H2        -39.0694   37.3545   30.2046 H         1 <0>         0.0600 
     35 H3        -39.4494   38.2145   31.7010 H         1 <0>         0.0600 
     36 H4        -34.5142   39.9618   42.0275 H         1 <0>         0.0600 
     37 H5        -33.7412   38.3954   42.2893 H         1 <0>         0.0600 
     38 H6        -32.7866   39.7797   41.7374 H         1 <0>         0.0600 
     39 H7        -33.7702   31.1578   31.1865 H         1 <0>         0.1150 
     40 H8        -35.7684   32.3122   30.2481 H         1 <0>         0.1150 
     41 H9        -31.8098   32.4955   31.9424 H         1 <0>         0.1150 
     42 H10       -35.8057   34.7622   30.0368 H         1 <0>         0.1150 
     43 H11       -31.8485   34.9655   31.7713 H         1 <0>         0.1150 
     44 H12       -36.0814   39.5536   40.2127 H         1 <0>         0.1150 
     45 H13       -32.0128   38.1436   39.8907 H         1 <0>         0.1150 
     46 H14       -36.4995   38.8801   37.8508 H         1 <0>         0.1150 
     47 H15       -32.4258   37.4780   37.5388 H         1 <0>         0.1150 
     48 H16       -35.0520   35.6848   37.8817 H         1 <0>         0.0733 
     49 H17       -34.7629   34.5300   36.6140 H         1 <0>         0.0733 
     50 H18       -37.4758   35.1403   37.9308 H         1 <0>         0.0600 
     51 H19       -36.4698   33.7575   38.2984 H         1 <0>         0.0600 
     52 H20       -38.4667   35.5642   35.3682 H         1 <0>         0.0600 
     53 H21       -38.1094   34.4531   34.0684 H         1 <0>         0.0600 
     54 H22       -38.2271   40.2418   30.8416 H         1 <0>         0.0300 
     55 H23       -37.8113   39.3981   29.3686 H         1 <0>         0.0300 
     56 H24       -32.9221   36.9488   31.2772 H         1 <0>         0.0600 
     57 H25       -33.7676   36.8782   29.7721 H         1 <0>         0.0600 
     58 H26       -35.6600   34.8213   34.4538 H         1 <0>         0.0733 
     59 H27       -34.6306   38.2349   31.8760 H         1 <0>         0.0600 
     60 H28       -34.6082   36.0052   33.0988 H         1 <0>         0.3000 
@<TRIPOS>BOND
     1    1   15 1    
     2    1   33 1    
     3    1   34 1    
     4    1   35 1    
     5    2   17 1    
     6    2   36 1    
     7    2   37 1    
     8    2   38 1    
     9    3    4 ar   
    10    3    5 ar   
    11    3   39 1    
    12    4    6 ar   
    13    4   40 1    
    14    5    7 ar   
    15    5   41 1    
    16    6   18 ar   
    17    6   42 1    
    18    7   18 ar   
    19    7   43 1    
    20    8   10 ar   
    21    8   17 ar   
    22    8   44 1    
    23    9   11 ar   
    24    9   17 ar   
    25    9   45 1    
    26   10   19 ar   
    27   10   46 1    
    28   11   19 ar   
    29   11   47 1    
    30   12   13 1    
    31   12   25 1    
    32   12   48 1    
    33   12   49 1    
    34   13   31 1    
    35   13   50 1    
    36   13   51 1    
    37   14   20 1    
    38   14   31 1    
    39   14   52 1    
    40   14   53 1    
    41   15   30 1    
    42   15   54 1    
    43   15   55 1    
    44   16   18 1    
    45   16   21 1    
    46   16   56 1    
    47   16   57 1    
    48   19   32 1    
    49   20   22 1    
    50   20   25 1    
    51   20   58 1    
    52   21   23 1    
    53   21   24 1    
    54   21   59 1    
    55   22   24 am   BACKBONE|DICT|INTERRES
    56   22   26 2    
    57   23   27 2    
    58   23   30 1    
    59   24   60 1    
    60   25   32 1    
    61   28   32 2    
    62   29   32 2    
@<TRIPOS>SUBSTRUCTURE
     1 <0>         1 GROUP             0       ****    0 ROOT    
@<TRIPOS>MOLECULE
fkb1a-ligand
60   62    1
SMALL
USER_CHARGES


@<TRIPOS>ATOM
      1 C1        -38.5444   38.9189   31.0865 C.3       1 <0>        -0.1800 
      2 C2        -34.5178   39.4343   40.5806 C.3       1 <0>        -0.0650 
      3 C3        -32.7709   31.4187   31.3804 C.ar      1 <0>        -0.1150 
      4 C4        -34.1461   31.2421   31.1327 C.ar      1 <0>        -0.1150 
      5 C5        -32.1574   32.6516   31.0928 C.ar      1 <0>        -0.1150 
      6 C6        -34.9043   32.3004   30.5985 C.ar      1 <0>        -0.1150 
      7 C7        -32.9181   33.7164   30.5674 C.ar      1 <0>        -0.1150 
      8 C8        -35.5289   38.8063   38.3394 C.ar      1 <0>        -0.1150 
      9 C9        -33.3589   37.8707   38.9662 C.ar      1 <0>        -0.1150 
     10 C10       -35.4861   38.0930   37.1261 C.ar      1 <0>        -0.1150 
     11 C11       -33.3130   37.1547   37.7528 C.ar      1 <0>        -0.1150 
     12 C12       -35.7423   34.4086   36.6772 C.3       1 <0>         0.0588 
     13 C13       -37.1112   33.9152   37.1517 C.3       1 <0>         0.0842 
     14 C14       -37.8560   34.1306   34.5971 C.3       1 <0>         0.0842 
     15 C15       -37.1219   39.1446   30.5472 C.3       1 <0>         0.1900 
     16 C16       -35.1226   34.6789   29.7420 C.3       1 <0>        -0.0050 
     17 C17       -34.4678   38.6884   39.2645 C.ar      1 <0>        -0.1150 
     18 C18       -34.2907   33.5382   30.3089 C.ar      1 <0>        -0.1150 
     19 C19       -34.3842   37.2630   36.8458 C.ar      1 <0>         0.1567 
     20 C20       -36.4451   34.6939   34.2999 C.3       1 <0>         0.1321 
     21 C21       -35.4038   35.8224   30.7372 C.3       1 <0>         0.1400 
     22 C22       -36.5569   35.5892   33.0512 C.2       1 <0>         0.5000 
     23 C23       -36.3248   36.9132   30.1408 C.2       1 <0>         0.5100 
     24 N1        -35.7843   35.2149   32.0211 N.am      1 <0>        -0.5000 
     25 N2        -35.8158   35.3218   35.5080 N.pl3     1 <0>        -0.5376 
     26 O1        -37.3038   36.5645   33.0589 O.2       1 <0>        -0.5000 
     27 O2        -36.9712   36.7830   29.0966 O.2       1 <0>        -0.4300 
     28 O3        -33.2255   35.4145   35.3095 O.2       1 <0>        -0.4680 
     29 O4        -34.5733   37.2947   34.2390 O.2       1 <0>        -0.4680 
     30 O5        -36.2740   38.0464   30.8705 O.3       1 <0>        -0.3300 
     31 S1        -37.8827   32.8798   35.8987 S.3       1 <0>        -0.3350 
     32 S2        -34.3841   36.3207   35.3258 S.o2      1 <0>         0.8327 
     33 H1        -39.1857   39.7602   30.8407 H         1 <0>         0.0600 
     34 H2        -38.9955   38.0208   30.6608 H         1 <0>         0.0600 
     35 H3        -38.5416   38.8090   32.1705 H         1 <0>         0.0600 
     36 H4        -35.4621   39.9650   40.6881 H         1 <0>         0.0600 
     37 H5        -34.4350   38.7383   41.4150 H         1 <0>         0.0600 
     38 H6        -33.6968   40.1452   40.6503 H         1 <0>         0.0600 
     39 H7        -32.1898   30.6063   31.7924 H         1 <0>         0.1150 
     40 H8        -34.6169   30.2968   31.3557 H         1 <0>         0.1150 
     41 H9        -31.1017   32.7726   31.2854 H         1 <0>         0.1150 
     42 H10       -35.9606   32.1589   30.4155 H         1 <0>         0.1150 
     43 H11       -32.4494   34.6655   30.3548 H         1 <0>         0.1150 
     44 H12       -36.3767   39.4376   38.5576 H         1 <0>         0.1150 
     45 H13       -32.5429   37.7860   39.6716 H         1 <0>         0.1150 
     46 H14       -36.2996   38.1660   36.4188 H         1 <0>         0.1150 
     47 H15       -32.4691   36.5163   37.5353 H         1 <0>         0.1150 
     48 H16       -35.2685   34.9177   37.5136 H         1 <0>         0.0733 
     49 H17       -35.0978   33.5631   36.4320 H         1 <0>         0.0733 
     50 H18       -37.7679   34.7522   37.3867 H         1 <0>         0.0600 
     51 H19       -37.0029   33.3278   38.0635 H         1 <0>         0.0600 
     52 H20       -38.5505   34.9336   34.8591 H         1 <0>         0.0600 
     53 H21       -38.2393   33.6336   33.7075 H         1 <0>         0.0600 
     54 H22       -36.6982   40.0440   30.9940 H         1 <0>         0.0300 
     55 H23       -37.1435   39.3119   29.4691 H         1 <0>         0.0300 
     56 H24       -34.6264   35.0684   28.8537 H         1 <0>         0.0600 
     57 H25       -36.0709   34.2639   29.3979 H         1 <0>         0.0600 
     58 H26       -35.8125   33.8445   34.0306 H         1 <0>         0.0733 
     59 H27       -34.4474   36.3052   30.9385 H         1 <0>         0.0600 
     60 H28       -35.2778   34.3575   32.1859 H         1 <0>         0.3000 
@<TRIPOS>BOND
     1    1   15 1    
     2    1   33 1    
     3    1   34 1    
     4    1   35 1    
     5    2   17 1    
     6    2   36 1    
     7    2   37 1    
     8    2   38 1    
     9    3    4 ar   
    10    3    5 ar   
    11    3   39 1    
    12    4    6 ar   
    13    4   40 1    
    14    5    7 ar   
    15    5   41 1    
    16    6   18 ar   
    17    6   42 1    
    18    7   18 ar   
    19    7   43 1    
    20    8   10 ar   
    21    8   17 ar   
    22    8   44 1    
    23    9   11 ar   
    24    9   17 ar   
    25    9   45 1    
    26   10   19 ar   
    27   10   46 1    
    28   11   19 ar   
    29   11   47 1    
    30   12   13 1    
    31   12   25 1    
    32   12   48 1    
    33   12   49 1    
    34   13   31 1    
    35   13   50 1    
    36   13   51 1    
    37   14   20 1    
    38   14   31 1    
    39   14   52 1    
    40   14   53 1    
    41   15   30 1    
    42   15   54 1    
    43   15   55 1    
    44   16   18 1    
    45   16   21 1    
    46   16   56 1    
    47   16   57 1    
    48   19   32 1    
    49   20   22 1    
    50   20   25 1    
    51   20   58 1    
    52   21   23 1    
    53   21   24 1    
    54   21   59 1    
    55   22   24 am   BACKBONE|DICT|INTERRES
    56   22   26 2    
    57   23   27 2    
    58   23   30 1    
    59   24   60 1    
    60   25   32 1    
    61   28   32 2    
    62   29   32 2    
@<TRIPOS>SUBSTRUCTURE
     1 <0>         1 GROUP             0       ****    0 ROOT    
@<TRIPOS>MOLECULE
fkb1a-ligand
60   62    1
SMALL
USER_CHARGES


@<TRIPOS>ATOM
      1 C1        -36.5785   39.7964   30.8925 C.3       1 <0>        -0.1800 
      2 C2        -33.9262   39.1604   40.6767 C.3       1 <0>        -0.0650 
      3 C3        -32.8242   30.8276   31.3578 C.ar      1 <0>        -0.1150 
      4 C4        -34.2079   30.8744   31.0980 C.ar      1 <0>        -0.1150 
      5 C5        -32.0189   31.9520   31.0908 C.ar      1 <0>        -0.1150 
      6 C6        -34.7857   32.0441   30.5702 C.ar      1 <0>        -0.1150 
      7 C7        -32.5980   33.1229   30.5663 C.ar      1 <0>        -0.1150 
      8 C8        -35.3579   39.2203   38.5908 C.ar      1 <0>        -0.1150 
      9 C9        -33.5674   37.5669   38.7390 C.ar      1 <0>        -0.1150 
     10 C10       -35.7055   38.7335   37.3162 C.ar      1 <0>        -0.1150 
     11 C11       -33.9172   37.0712   37.4674 C.ar      1 <0>        -0.1150 
     12 C12       -36.1184   34.6620   36.6431 C.3       1 <0>         0.0588 
     13 C13       -37.6041   34.3584   36.4118 C.3       1 <0>         0.0842 
     14 C14       -36.9646   33.9320   33.8702 C.3       1 <0>         0.0842 
     15 C15       -37.2294   38.4337   30.6234 C.3       1 <0>         0.1900 
     16 C16       -34.6124   34.4401   29.7368 C.3       1 <0>        -0.0050 
     17 C17       -34.2929   38.6347   39.3052 C.ar      1 <0>        -0.1150 
     18 C18       -33.9821   33.1721   30.2971 C.ar      1 <0>        -0.1150 
     19 C19       -34.9972   37.6478   36.7680 C.ar      1 <0>         0.1567 
     20 C20       -35.5062   34.2942   34.2671 C.3       1 <0>         0.1321 
     21 C21       -34.7268   35.6245   30.7245 C.3       1 <0>         0.1400 
     22 C22       -34.6697   34.7184   33.0535 C.2       1 <0>         0.5000 
     23 C23       -35.4940   36.8246   30.1153 C.2       1 <0>         0.5100 
     24 N1        -35.3300   35.1776   31.9769 N.am      1 <0>        -0.5000 
     25 N2        -35.4439   35.2161   35.4415 N.pl3     1 <0>        -0.5376 
     26 O1        -33.4434   34.6502   33.1143 O.2       1 <0>        -0.5000 
     27 O2        -35.3157   37.2410   28.9712 O.2       1 <0>        -0.4300 
     28 O3        -34.4785   37.3538   34.2206 O.2       1 <0>        -0.4680 
     29 O4        -36.9129   37.3061   34.9419 O.2       1 <0>        -0.4680 
     30 O5        -36.3686   37.3663   30.9985 O.3       1 <0>        -0.3300 
     31 S1        -37.8216   33.0495   35.1945 S.3       1 <0>        -0.3350 
     32 S2        -35.5074   36.9566   35.1940 S.o2      1 <0>         0.8327 
     33 H1        -37.2864   40.6028   30.6956 H         1 <0>         0.0600 
     34 H2        -36.2557   39.8786   31.9319 H         1 <0>         0.0600 
     35 H3        -35.7113   39.9537   30.2527 H         1 <0>         0.0600 
     36 H4        -33.1774   39.9462   40.5918 H         1 <0>         0.0600 
     37 H5        -34.7995   39.5767   41.1788 H         1 <0>         0.0600 
     38 H6        -33.5256   38.3669   41.3078 H         1 <0>         0.0600 
     39 H7        -32.3811   29.9313   31.7661 H         1 <0>         0.1150 
     40 H8        -34.8273   30.0149   31.3074 H         1 <0>         0.1150 
     41 H9        -30.9593   31.9183   31.2956 H         1 <0>         0.1150 
     42 H10       -35.8499   32.0752   30.3755 H         1 <0>         0.1150 
     43 H11       -31.9839   33.9900   30.3709 H         1 <0>         0.1150 
     44 H12       -35.9027   40.0508   39.0163 H         1 <0>         0.1150 
     45 H13       -32.7452   37.1190   39.2786 H         1 <0>         0.1150 
     46 H14       -36.5081   39.1993   36.7661 H         1 <0>         0.1150 
     47 H15       -33.3700   36.2443   37.0388 H         1 <0>         0.1150 
     48 H16       -36.0325   35.3476   37.4836 H         1 <0>         0.0733 
     49 H17       -35.6008   33.7508   36.9468 H         1 <0>         0.0733 
     50 H18       -38.1147   35.2408   36.0408 H         1 <0>         0.0600 
     51 H19       -38.0856   34.0709   37.3473 H         1 <0>         0.0600 
     52 H20       -37.5370   34.8295   33.6271 H         1 <0>         0.0600 
     53 H21       -36.9827   33.2906   32.9863 H         1 <0>         0.0600 
     54 H22       -37.5283   38.3499   29.5775 H         1 <0>         0.0300 
     55 H23       -38.1421   38.3484   31.2130 H         1 <0>         0.0300 
     56 H24       -34.0222   34.7519   28.8741 H         1 <0>         0.0600 
     57 H25       -35.6004   34.1938   29.3418 H         1 <0>         0.0600 
     58 H26       -35.0382   33.3604   34.5832 H         1 <0>         0.0733 
     59 H27       -33.7161   35.9686   30.9506 H         1 <0>         0.0600 
     60 H28       -36.3359   35.2468   32.0258 H         1 <0>         0.3000 
@<TRIPOS>BOND
     1    1   15 1    
     2    1   33 1    
     3    1   34 1    
     4    1   35 1    
     5    2   17 1    
     6    2   36 1    
     7    2   37 1    
     8    2   38 1    
     9    3    4 ar   
    10    3    5 ar   
    11    3   39 1    
    12    4    6 ar   
    13    4   40 1    
    14    5    7 ar   
    15    5   41 1    
    16    6   18 ar   
    17    6   42 1    
    18    7   18 ar   
    19    7   43 1    
    20    8   10 ar   
    21    8   17 ar   
    22    8   44 1    
    23    9   11 ar   
    24    9   17 ar   
    25    9   45 1    
    26   10   19 ar   
    27   10   46 1    
    28   11   19 ar   
    29   11   47 1    
    30   12   13 1    
    31   12   25 1    
    32   12   48 1    
    33   12   49 1    
    34   13   31 1    
    35   13   50 1    
    36   13   51 1    
    37   14   20 1    
    38   14   31 1    
    39   14   52 1    
    40   14   53 1    
    41   15   30 1    
    42   15   54 1    
    43   15   55 1    
    44   16   18 1    
    45   16   21 1    
    46   16   56 1    
    47   16   57 1    
    48   19   32 1    
    49   20   22 1    
    50   20   25 1    
    51   20   58 1    
    52   21   23 1    
    53   21   24 1    
    54   21   59 1    
    55   22   24 am   BACKBONE|DICT|INTERRES
    56   22   26 2    
    57   23   27 2    
    58   23   30 1    
    59   24   60 1    
    60   25   32 1    
    61   28   32 2    
    62   29   32 2    
@<TRIPOS>SUBSTRUCTURE
     1 <0>         1 GROUP             0       ****    0 ROOT    
@<TRIPOS>MOLECULE
fkb1a-ligand
60   62    1
SMALL
USER_CHARGES


@<TRIPOS>ATOM
      1 C1        -37.0064   40.2252   31.7650 C.3       1 <0>        -0.1800 
      2 C2        -33.8134   39.1776   40.9955 C.3       1 <0>        -0.0650 
      3 C3        -32.8880   31.6888   30.8191 C.ar      1 <0>        -0.1150 
      4 C4        -34.2876   31.6016   30.6993 C.ar      1 <0>        -0.1150 
      5 C5        -32.2400   32.9121   30.5627 C.ar      1 <0>        -0.1150 
      6 C6        -35.0354   32.7358   30.3315 C.ar      1 <0>        -0.1150 
      7 C7        -32.9867   34.0426   30.1792 C.ar      1 <0>        -0.1150 
      8 C8        -33.3125   37.8216   38.9084 C.ar      1 <0>        -0.1150 
      9 C9        -35.3330   39.1907   38.9661 C.ar      1 <0>        -0.1150 
     10 C10       -33.6351   37.3947   37.6037 C.ar      1 <0>        -0.1150 
     11 C11       -35.6548   38.7656   37.6626 C.ar      1 <0>        -0.1150 
     12 C12       -35.7200   34.8803   36.6673 C.3       1 <0>         0.0588 
     13 C13       -37.2269   34.6520   36.5368 C.3       1 <0>         0.0842 
     14 C14       -36.8207   34.3022   33.9647 C.3       1 <0>         0.0842 
     15 C15       -37.7522   39.0132   31.1805 C.3       1 <0>         0.1900 
     16 C16       -35.1944   35.1922   29.6802 C.3       1 <0>        -0.0050 
     17 C17       -34.1637   38.7144   39.5949 C.ar      1 <0>        -0.1150 
     18 C18       -34.3880   33.9586   30.0565 C.ar      1 <0>        -0.1150 
     19 C19       -34.8159   37.8592   36.9892 C.ar      1 <0>         0.1567 
     20 C20       -35.3377   34.7044   34.2284 C.3       1 <0>         0.1321 
     21 C21       -35.1614   36.3252   30.7333 C.3       1 <0>         0.1400 
     22 C22       -34.6961   35.2876   32.9653 C.2       1 <0>         0.5000 
     23 C23       -36.0251   37.5439   30.3362 C.2       1 <0>         0.5100 
     24 N1        -35.5267   35.8049   32.0456 N.am      1 <0>        -0.5000 
     25 N2        -35.1579   35.5306   35.4613 N.pl3     1 <0>        -0.5376 
     26 O1        -33.4721   35.2820   32.8496 O.2       1 <0>        -0.5000 
     27 O2        -35.8553   38.1769   29.2921 O.2       1 <0>        -0.4300 
     28 O3        -34.1845   37.7561   34.4494 O.2       1 <0>        -0.4680 
     29 O4        -36.6494   37.6247   35.0446 O.2       1 <0>        -0.4680 
     30 O5        -36.9511   37.8439   31.2822 O.3       1 <0>        -0.3300 
     31 S1        -37.5557   33.3686   35.3235 S.3       1 <0>        -0.3350 
     32 S2        -35.2507   37.2820   35.3442 S.o2      1 <0>         0.8327 
     33 H1        -37.6514   41.1024   31.8055 H         1 <0>         0.0600 
     34 H2        -36.6629   40.0208   32.7807 H         1 <0>         0.0600 
     35 H3        -36.1338   40.4798   31.1633 H         1 <0>         0.0600 
     36 H4        -33.3949   38.3602   41.5829 H         1 <0>         0.0600 
     37 H5        -33.0811   39.9851   40.9519 H         1 <0>         0.0600 
     38 H6        -34.6960   39.5453   41.5181 H         1 <0>         0.0600 
     39 H7        -32.3140   30.8215   31.1102 H         1 <0>         0.1150 
     40 H8        -34.7914   30.6671   30.8975 H         1 <0>         0.1150 
     41 H9        -31.1696   32.9913   30.6631 H         1 <0>         0.1150 
     42 H10       -36.1098   32.6596   30.2546 H         1 <0>         0.1150 
     43 H11       -32.4812   34.9797   29.9963 H         1 <0>         0.1150 
     44 H12       -32.4084   37.4628   39.3781 H         1 <0>         0.1150 
     45 H13       -35.9740   39.8979   39.4732 H         1 <0>         0.1150 
     46 H14       -32.9866   36.7076   37.0789 H         1 <0>         0.1150 
     47 H15       -36.5102   39.1752   37.1644 H         1 <0>         0.1150 
     48 H16       -35.5100   35.4650   37.5595 H         1 <0>         0.0733 
     49 H17       -35.2143   33.9279   36.8274 H         1 <0>         0.0733 
     50 H18       -37.6966   35.5632   36.1754 H         1 <0>         0.0600 
     51 H19       -37.6761   34.3818   37.4929 H         1 <0>         0.0600 
     52 H20       -37.4399   35.1853   33.7986 H         1 <0>         0.0600 
     53 H21       -36.9029   33.6847   33.0686 H         1 <0>         0.0600 
     54 H22       -38.0514   39.1989   30.1472 H         1 <0>         0.0300 
     55 H23       -38.6680   38.8427   31.7462 H         1 <0>         0.0300 
     56 H24       -34.8045   35.5647   28.7313 H         1 <0>         0.0600 
     57 H25       -36.2254   34.8941   29.4776 H         1 <0>         0.0600 
     58 H26       -34.7958   33.7731   34.3996 H         1 <0>         0.0733 
     59 H27       -34.1318   36.6818   30.8053 H         1 <0>         0.0600 
     60 H28       -36.5119   35.8366   32.2634 H         1 <0>         0.3000 
@<TRIPOS>BOND
     1    1   15 1    
     2    1   33 1    
     3    1   34 1    
     4    1   35 1    
     5    2   17 1    
     6    2   36 1    
     7    2   37 1    
     8    2   38 1    
     9    3    4 ar   
    10    3    5 ar   
    11    3   39 1    
    12    4    6 ar   
    13    4   40 1    
    14    5    7 ar   
    15    5   41 1    
    16    6   18 ar   
    17    6   42 1    
    18    7   18 ar   
    19    7   43 1    
    20    8   10 ar   
    21    8   17 ar   
    22    8   44 1    
    23    9   11 ar   
    24    9   17 ar   
    25    9   45 1    
    26   10   19 ar   
    27   10   46 1    
    28   11   19 ar   
    29   11   47 1    
    30   12   13 1    
    31   12   25 1    
    32   12   48 1    
    33   12   49 1    
    34   13   31 1    
    35   13   50 1    
    36   13   51 1    
    37   14   20 1    
    38   14   31 1    
    39   14   52 1    
    40   14   53 1    
    41   15   30 1    
    42   15   54 1    
    43   15   55 1    
    44   16   18 1    
    45   16   21 1    
    46   16   56 1    
    47   16   57 1    
    48   19   32 1    
    49   20   22 1    
    50   20   25 1    
    51   20   58 1    
    52   21   23 1    
    53   21   24 1    
    54   21   59 1    
    55   22   24 am   BACKBONE|DICT|INTERRES
    56   22   26 2    
    57   23   27 2    
    58   23   30 1    
    59   24   60 1    
    60   25   32 1    
    61   28   32 2    
    62   29   32 2    
@<TRIPOS>SUBSTRUCTURE
     1 <0>         1 GROUP             0       ****    0 ROOT    
