@<TRIPOS>MOLECULE
fnta-ligand
85   88    1
SMALL
USER_CHARGES


@<TRIPOS>ATOM
      1 C1         16.3625  -26.8233    8.3219 C.3       1 <0>        -0.0650 
      2 C2         19.8023  -21.9319   11.4822 C.3       1 <0>        -0.1800 
      3 C3         21.9948  -20.8227   10.9185 C.3       1 <0>        -0.1800 
      4 C4         22.0188  -23.1857   11.6635 C.3       1 <0>        -0.1800 
      5 C5         12.5842  -18.3747    5.9364 C.3       1 <0>        -0.0575 
      6 C6         13.3870  -27.7216    6.1200 C.ar      1 <0>        -0.1150 
      7 C7         13.1805  -26.5586    5.3652 C.ar      1 <0>        -0.1150 
      8 C8         14.4319  -27.7816    7.0557 C.ar      1 <0>        -0.1150 
      9 C9         14.0123  -25.4446    5.5684 C.ar      1 <0>        -0.1150 
     10 C10        15.5272  -21.3417   -0.4881 C.ar      1 <0>        -0.1150 
     11 C11        16.7220  -19.4313    0.4383 C.ar      1 <0>        -0.1150 
     12 C12        15.0095  -21.6324    0.7926 C.ar      1 <0>        -0.1150 
     13 C13        16.1964  -19.7166    1.7129 C.ar      1 <0>        -0.1150 
     14 C14        12.8646  -18.7986    2.3366 C.ar      1 <0>         0.1850 
     15 C15        11.6900  -17.6754    3.7175 C.ar      1 <0>         0.2750 
     16 C16        19.4878  -22.7813    5.9186 C.3       1 <0>        -0.1200 
     17 C17        19.6059  -25.3321    6.3108 C.3       1 <0>        -0.1200 
     18 C18        20.8441  -22.6701    6.6581 C.3       1 <0>        -0.0703 
     19 C19        20.9486  -25.0809    6.9955 C.3       1 <0>        -0.0703 
     20 C20        15.1314  -22.3950    3.7535 C.3       1 <0>         0.1267 
     21 C21        16.4765  -22.3525    4.5091 C.3       1 <0>         0.0588 
     22 C22        14.4240  -20.0185    4.0777 C.3       1 <0>         0.2240 
     23 C23        17.8378  -24.4545    4.6910 C.3       1 <0>         0.0588 
     24 C24        16.9424  -19.9310   -1.9724 C.1       1 <0>         0.3950 
     25 C25        15.2774  -26.6717    7.2696 C.ar      1 <0>        -0.1150 
     26 C26        16.3891  -20.2413   -0.6636 C.ar      1 <0>         0.0350 
     27 C27        15.3321  -20.8192    1.9028 C.ar      1 <0>         0.2100 
     28 C28        15.0551  -25.4802    6.5189 C.ar      1 <0>         0.1567 
     29 C29        13.3199  -19.1119    3.6031 C.ar      1 <0>        -0.2330 
     30 C30        19.2354  -24.2017    5.3264 C.3       1 <0>        -0.0233 
     31 C31        20.6597  -23.6263    8.9963 C.2       1 <0>         0.6995 
     32 C32        21.2026  -22.1333   10.8678 C.3       1 <0>         0.2500 
     33 N1         17.3866  -19.6790   -3.0102 N.1       1 <0>        -0.4300 
     34 N2         11.8129  -17.8875    2.4156 N.2       1 <0>        -0.5630 
     35 N3         12.5305  -18.3799    4.4867 N.pl3     1 <0>        -0.0735 
     36 N4         20.9191  -23.7650    7.6295 N.am      1 <0>        -0.2219 
     37 N5         14.7743  -21.1084    3.1630 N.pl3     1 <0>        -0.6300 
     38 N6         16.7441  -23.6174    5.2241 N.pl3     1 <0>        -0.5376 
     39 O1         20.1725  -24.4945    9.7154 O.2       1 <0>        -0.4970 
     40 O2         16.9926  -24.0820    7.7925 O.2       1 <0>        -0.4680 
     41 O3         14.9504  -22.8807    6.9199 O.2       1 <0>        -0.4680 
     42 O4         21.0980  -22.4318    9.4641 O.3       1 <0>        -0.3300 
     43 S1         15.9630  -23.9301    6.7551 S.o2      1 <0>         0.8327 
     44 H1         16.3143  -27.8006    8.8013 H         1 <0>         0.0600 
     45 H2         17.3475  -26.7407    7.8698 H         1 <0>         0.0600 
     46 H3         16.2620  -26.0788    9.1107 H         1 <0>         0.0600 
     47 H4         19.8714  -21.6785   12.5390 H         1 <0>         0.0600 
     48 H5         19.1945  -22.8333   11.4207 H         1 <0>         0.0600 
     49 H6         19.2594  -21.1275   10.9856 H         1 <0>         0.0600 
     50 H7         22.9862  -20.9759   10.4957 H         1 <0>         0.0600 
     51 H8         21.5032  -20.0304   10.3539 H         1 <0>         0.0600 
     52 H9         22.1433  -20.4798   11.9437 H         1 <0>         0.0600 
     53 H10        22.9813  -23.3828   11.1870 H         1 <0>         0.0600 
     54 H11        22.2206  -22.8349   12.6763 H         1 <0>         0.0600 
     55 H12        21.5016  -24.1360   11.7724 H         1 <0>         0.0600 
     56 H13        12.1857  -17.4351    6.3219 H         1 <0>         0.0600 
     57 H14        11.9877  -19.2008    6.3272 H         1 <0>         0.0600 
     58 H15        13.6129  -18.4880    6.2797 H         1 <0>         0.0600 
     59 H16        12.7456  -28.5784    5.9724 H         1 <0>         0.1150 
     60 H17        12.3845  -26.5211    4.6382 H         1 <0>         0.1150 
     61 H18        14.5747  -28.6924    7.6190 H         1 <0>         0.1150 
     62 H19        13.8201  -24.5505    5.0056 H         1 <0>         0.1150 
     63 H20        15.2500  -21.9571   -1.3329 H         1 <0>         0.1150 
     64 H21        17.3822  -18.5847    0.3149 H         1 <0>         0.1150 
     65 H22        14.3345  -22.4665    0.9142 H         1 <0>         0.1150 
     66 H23        16.4694  -19.0771    2.5380 H         1 <0>         0.1150 
     67 H24        13.2075  -19.1588    1.3777 H         1 <0>         0.0750 
     68 H25        10.9542  -16.9995    4.1201 H         1 <0>         0.0780 
     69 H26        18.7009  -22.5182    6.6245 H         1 <0>         0.0600 
     70 H27        19.4383  -22.0338    5.1262 H         1 <0>         0.0600 
     71 H28        19.6300  -26.2929    5.7953 H         1 <0>         0.0600 
     72 H29        18.8532  -25.4249    7.0834 H         1 <0>         0.0600 
     73 H30        20.9387  -21.6871    7.1217 H         1 <0>         0.0600 
     74 H31        21.6682  -22.7547    5.9506 H         1 <0>         0.0600 
     75 H32        21.7630  -25.1227    6.2683 H         1 <0>         0.0600 
     76 H33        21.1408  -25.8704    7.7193 H         1 <0>         0.0600 
     77 H34        15.1491  -23.1809    2.9984 H         1 <0>         0.0600 
     78 H35        14.3267  -22.6415    4.4409 H         1 <0>         0.0600 
     79 H36        16.4800  -21.5428    5.2380 H         1 <0>         0.0733 
     80 H37        17.2859  -22.1273    3.8138 H         1 <0>         0.0733 
     81 H38        14.1252  -20.4634    5.0285 H         1 <0>         0.0600 
     82 H39        15.3093  -19.4286    4.3149 H         1 <0>         0.0600 
     83 H40        17.9061  -24.2918    3.6151 H         1 <0>         0.0733 
     84 H41        17.5544  -25.5023    4.7969 H         1 <0>         0.0733 
     85 H42        19.9539  -24.3037    4.5120 H         1 <0>         0.0600 
@<TRIPOS>BOND
     1    1   44 1    
     2    1   46 1    
     3    1   45 1    
     4    1   25 1    
     5    2   32 1    
     6    2   47 1    
     7    2   48 1    
     8    2   49 1    
     9    3   32 1    
    10    3   50 1    
    11    3   52 1    
    12    3   51 1    
    13    4   54 1    
    14    4   53 1    
    15    4   55 1    
    16    4   32 1    
    17    5   57 1    
    18    5   35 1    
    19    5   58 1    
    20    5   56 1    
    21    6    8 ar   
    22    6   59 1    
    23    6    7 ar   
    24    7    9 ar   
    25    7   60 1    
    26    8   25 ar   
    27    8   61 1    
    28    9   28 ar   
    29    9   62 1    
    30   10   63 1    
    31   10   12 ar   
    32   10   26 ar   
    33   11   26 ar   
    34   11   13 ar   
    35   11   64 1    
    36   12   65 1    
    37   12   27 ar   
    38   13   27 ar   
    39   13   66 1    
    40   14   34 ar   
    41   14   29 ar   
    42   14   67 1    
    43   15   68 1    
    44   15   34 ar   
    45   15   35 ar   
    46   16   69 1    
    47   16   18 1    
    48   16   30 1    
    49   16   70 1    
    50   17   30 1    
    51   17   72 1    
    52   17   19 1    
    53   17   71 1    
    54   18   74 1    
    55   18   73 1    
    56   18   36 1    
    57   19   75 1    
    58   19   36 1    
    59   19   76 1    
    60   20   37 1    
    61   20   21 1    
    62   20   77 1    
    63   20   78 1    
    64   21   79 1    
    65   21   80 1    
    66   21   38 1    
    67   22   29 1    
    68   22   81 1    
    69   22   82 1    
    70   22   37 1    
    71   23   38 1    
    72   23   30 1    
    73   23   83 1    
    74   23   84 1    
    75   24   33 3    
    76   24   26 1    
    77   25   28 ar   
    78   27   37 1    
    79   28   43 1    
    80   29   35 ar   
    81   30   85 1    
    82   31   36 am   BACKBONE|DICT|INTERRES
    83   31   42 1    
    84   31   39 2    
    85   32   42 1    
    86   38   43 1    
    87   40   43 2    
    88   41   43 2    
@<TRIPOS>SUBSTRUCTURE
     1 <0>         1 GROUP             0       ****    0 ROOT    
@<TRIPOS>MOLECULE
fnta-ligand
85   88    1
SMALL
USER_CHARGES


@<TRIPOS>ATOM
      1 C1         16.2999  -27.6071    5.6918 C.3       1 <0>        -0.0650 
      2 C2         23.3651  -23.2416   11.3861 C.3       1 <0>        -0.1800 
      3 C3         21.1563  -24.4752   11.7634 C.3       1 <0>        -0.1800 
      4 C4         21.3641  -22.0326   12.2854 C.3       1 <0>        -0.1800 
      5 C5         11.4510  -23.9770    6.5828 C.3       1 <0>        -0.0575 
      6 C6         16.5799  -26.4912    9.3319 C.ar      1 <0>        -0.1150 
      7 C7         17.7211  -25.6716    9.3182 C.ar      1 <0>        -0.1150 
      8 C8         16.1394  -27.0998    8.1426 C.ar      1 <0>        -0.1150 
      9 C9         18.4116  -25.4535    8.1125 C.ar      1 <0>        -0.1150 
     10 C10        12.9919  -19.2581    3.8141 C.ar      1 <0>        -0.1150 
     11 C11        13.7995  -20.2211    1.7269 C.ar      1 <0>        -0.1150 
     12 C12        13.5655  -20.3274    4.5294 C.ar      1 <0>        -0.1150 
     13 C13        14.3733  -21.2880    2.4438 C.ar      1 <0>        -0.1150 
     14 C14        14.5487  -25.4558    5.3922 C.ar      1 <0>         0.1850 
     15 C15        12.5857  -26.1020    5.9398 C.ar      1 <0>         0.2750 
     16 C16        18.2697  -22.1860    6.6525 C.3       1 <0>        -0.1200 
     17 C17        20.6963  -22.7260    6.2124 C.3       1 <0>        -0.1200 
     18 C18        18.6896  -21.4415    7.9330 C.3       1 <0>        -0.0703 
     19 C19        21.0759  -21.9742    7.5014 C.3       1 <0>        -0.0703 
     20 C20        16.2751  -22.6565    4.2976 C.3       1 <0>         0.1267 
     21 C21        16.7117  -24.0833    4.6758 C.3       1 <0>         0.0588 
     22 C22        14.2672  -22.8950    5.8002 C.3       1 <0>         0.2240 
     23 C23        18.9870  -23.0401    4.4140 C.3       1 <0>         0.0588 
     24 C24        12.5030  -18.1094    1.6692 C.1       1 <0>         0.3950 
     25 C25        16.8225  -26.8895    6.9242 C.ar      1 <0>        -0.1150 
     26 C26        13.1055  -19.2042    2.4108 C.ar      1 <0>         0.0350 
     27 C27        14.2639  -21.3541    3.8516 C.ar      1 <0>         0.2100 
     28 C28        17.9639  -26.0381    6.9073 C.ar      1 <0>         0.1567 
     29 C29        13.8403  -24.3323    5.7611 C.ar      1 <0>        -0.2330 
     30 C30        19.3945  -22.1818    5.6081 C.3       1 <0>        -0.0233 
     31 C31        20.0664  -22.4200    9.7548 C.2       1 <0>         0.6995 
     32 C32        21.8244  -23.1507   11.3357 C.3       1 <0>         0.2500 
     33 N1         12.0226  -17.2386    1.0784 N.1       1 <0>        -0.4300 
     34 N2         13.7417  -26.5843    5.5055 N.2       1 <0>        -0.5630 
     35 N3         12.5685  -24.7737    6.1176 N.pl3     1 <0>        -0.0735 
     36 N4         19.9569  -21.9684    8.4554 N.am      1 <0>        -0.2219 
     37 N5         14.8553  -22.4280    4.5460 N.pl3     1 <0>        -0.6300 
     38 N6         18.1773  -24.2172    4.7885 N.pl3     1 <0>        -0.5376 
     39 O1         19.1329  -22.5194   10.5517 O.2       1 <0>        -0.4970 
     40 O2         18.7299  -26.7332    4.4187 O.2       1 <0>        -0.4680 
     41 O3         20.2882  -25.3125    5.8274 O.2       1 <0>        -0.4680 
     42 O4         21.3593  -22.7245   10.0483 O.3       1 <0>        -0.3300 
     43 S1         18.9217  -25.6672    5.4134 S.o2      1 <0>         0.8327 
     44 H1         15.3207  -28.0498    5.8758 H         1 <0>         0.0600 
     45 H2         16.1910  -26.9283    4.8504 H         1 <0>         0.0600 
     46 H3         16.9778  -28.4119    5.4070 H         1 <0>         0.0600 
     47 H4         23.7118  -23.4281   12.4029 H         1 <0>         0.0600 
     48 H5         23.8269  -22.3137   11.0471 H         1 <0>         0.0600 
     49 H6         23.7544  -24.0494   10.7673 H         1 <0>         0.0600 
     50 H7         20.0698  -24.4079   11.7003 H         1 <0>         0.0600 
     51 H8         21.4712  -25.3157   11.1454 H         1 <0>         0.0600 
     52 H9         21.4109  -24.7266   12.7934 H         1 <0>         0.0600 
     53 H10        20.2819  -21.8999   12.2519 H         1 <0>         0.0600 
     54 H11        21.6384  -22.2478   13.3187 H         1 <0>         0.0600 
     55 H12        21.8210  -21.0797   12.0182 H         1 <0>         0.0600 
     56 H13        10.6266  -24.6234    6.8860 H         1 <0>         0.0600 
     57 H14        11.7580  -23.3744    7.4379 H         1 <0>         0.0600 
     58 H15        11.1092  -23.3202    5.7830 H         1 <0>         0.0600 
     59 H16        16.0484  -26.6630   10.2565 H         1 <0>         0.1150 
     60 H17        18.0701  -25.2135   10.2320 H         1 <0>         0.1150 
     61 H18        15.2694  -27.7397    8.1739 H         1 <0>         0.1150 
     62 H19        19.2930  -24.8320    8.1236 H         1 <0>         0.1150 
     63 H20        12.4629  -18.4823    4.3489 H         1 <0>         0.1150 
     64 H21        13.8913  -20.1918    0.6506 H         1 <0>         0.1150 
     65 H22        13.4699  -20.3419    5.6043 H         1 <0>         0.1150 
     66 H23        14.8921  -22.0644    1.9008 H         1 <0>         0.1150 
     67 H24        15.5702  -25.5339    5.0500 H         1 <0>         0.0750 
     68 H25        11.7304  -26.7327    6.1340 H         1 <0>         0.0780 
     69 H26        18.0054  -23.2142    6.8996 H         1 <0>         0.0600 
     70 H27        17.3712  -21.7316    6.2349 H         1 <0>         0.0600 
     71 H28        21.5051  -22.6512    5.4856 H         1 <0>         0.0600 
     72 H29        20.5804  -23.7872    6.4324 H         1 <0>         0.0600 
     73 H30        17.8866  -21.5038    8.6674 H         1 <0>         0.0600 
     74 H31        18.8203  -20.3806    7.7197 H         1 <0>         0.0600 
     75 H32        21.4064  -20.9672    7.2467 H         1 <0>         0.0600 
     76 H33        21.9290  -22.4584    7.9765 H         1 <0>         0.0600 
     77 H34        16.8783  -21.9310    4.8414 H         1 <0>         0.0600 
     78 H35        16.4598  -22.4762    3.2396 H         1 <0>         0.0600 
     79 H36        16.3506  -24.7940    3.9319 H         1 <0>         0.0733 
     80 H37        16.2452  -24.3735    5.6176 H         1 <0>         0.0733 
     81 H38        15.0022  -22.7708    6.5964 H         1 <0>         0.0600 
     82 H39        13.4315  -22.2469    6.0632 H         1 <0>         0.0600 
     83 H40        18.4153  -22.4399    3.7074 H         1 <0>         0.0733 
     84 H41        19.8686  -23.3592    3.8566 H         1 <0>         0.0733 
     85 H42        19.5494  -21.1733    5.2248 H         1 <0>         0.0600 
@<TRIPOS>BOND
     1    1   44 1    
     2    1   46 1    
     3    1   45 1    
     4    1   25 1    
     5    2   32 1    
     6    2   47 1    
     7    2   48 1    
     8    2   49 1    
     9    3   32 1    
    10    3   50 1    
    11    3   52 1    
    12    3   51 1    
    13    4   54 1    
    14    4   53 1    
    15    4   55 1    
    16    4   32 1    
    17    5   57 1    
    18    5   35 1    
    19    5   58 1    
    20    5   56 1    
    21    6    8 ar   
    22    6   59 1    
    23    6    7 ar   
    24    7    9 ar   
    25    7   60 1    
    26    8   25 ar   
    27    8   61 1    
    28    9   28 ar   
    29    9   62 1    
    30   10   63 1    
    31   10   12 ar   
    32   10   26 ar   
    33   11   26 ar   
    34   11   13 ar   
    35   11   64 1    
    36   12   65 1    
    37   12   27 ar   
    38   13   27 ar   
    39   13   66 1    
    40   14   34 ar   
    41   14   29 ar   
    42   14   67 1    
    43   15   68 1    
    44   15   34 ar   
    45   15   35 ar   
    46   16   69 1    
    47   16   18 1    
    48   16   30 1    
    49   16   70 1    
    50   17   30 1    
    51   17   72 1    
    52   17   19 1    
    53   17   71 1    
    54   18   74 1    
    55   18   73 1    
    56   18   36 1    
    57   19   75 1    
    58   19   36 1    
    59   19   76 1    
    60   20   37 1    
    61   20   21 1    
    62   20   77 1    
    63   20   78 1    
    64   21   79 1    
    65   21   80 1    
    66   21   38 1    
    67   22   29 1    
    68   22   81 1    
    69   22   82 1    
    70   22   37 1    
    71   23   38 1    
    72   23   30 1    
    73   23   83 1    
    74   23   84 1    
    75   24   33 3    
    76   24   26 1    
    77   25   28 ar   
    78   27   37 1    
    79   28   43 1    
    80   29   35 ar   
    81   30   85 1    
    82   31   36 am   BACKBONE|DICT|INTERRES
    83   31   42 1    
    84   31   39 2    
    85   32   42 1    
    86   38   43 1    
    87   40   43 2    
    88   41   43 2    
@<TRIPOS>SUBSTRUCTURE
     1 <0>         1 GROUP             0       ****    0 ROOT    
@<TRIPOS>MOLECULE
fnta-ligand
85   88    1
SMALL
USER_CHARGES


@<TRIPOS>ATOM
      1 C1         15.9677  -27.6001    9.7070 C.3       1 <0>        -0.0650 
      2 C2         13.0925  -17.6115    1.4964 C.3       1 <0>        -0.1800 
      3 C3         14.9708  -16.3797    2.7199 C.3       1 <0>        -0.1800 
      4 C4         12.7642  -16.7840    3.8377 C.3       1 <0>        -0.1800 
      5 C5         23.3284  -22.1049   11.4603 C.3       1 <0>        -0.0575 
      6 C6         13.7710  -27.9320    6.6025 C.ar      1 <0>        -0.1150 
      7 C7         14.3250  -26.9825    5.7275 C.ar      1 <0>        -0.1150 
      8 C8         14.3266  -28.1150    7.8818 C.ar      1 <0>        -0.1150 
      9 C9         15.4408  -26.2269    6.1302 C.ar      1 <0>        -0.1150 
     10 C10        20.4671  -22.1094    4.3831 C.ar      1 <0>        -0.1150 
     11 C11        22.5775  -22.8724    5.3317 C.ar      1 <0>        -0.1150 
     12 C12        19.9427  -21.9468    5.6802 C.ar      1 <0>        -0.1150 
     13 C13        22.0520  -22.7078    6.6272 C.ar      1 <0>        -0.1150 
     14 C14        21.1733  -24.4354    9.6928 C.ar      1 <0>         0.1850 
     15 C15        22.6664  -24.4968   11.2217 C.ar      1 <0>         0.2750 
     16 C16        14.4344  -23.0506    4.5441 C.3       1 <0>        -0.1200 
     17 C17        15.9780  -21.3150    5.5332 C.3       1 <0>        -0.1200 
     18 C18        14.3731  -22.2254    3.2458 C.3       1 <0>        -0.0703 
     19 C19        15.8896  -20.5174    4.2192 C.3       1 <0>        -0.0703 
     20 C20        18.9183  -22.6545    8.3943 C.3       1 <0>         0.1267 
     21 C21        18.0427  -22.7283    7.1304 C.3       1 <0>         0.0588 
     22 C22        21.1588  -21.8676    9.2352 C.3       1 <0>         0.2240 
     23 C23        15.7140  -23.5444    6.6354 C.3       1 <0>         0.0588 
     24 C24        22.3238  -22.7567    2.8689 C.1       1 <0>         0.3950 
     25 C25        15.4474  -27.3636    8.2998 C.ar      1 <0>        -0.1150 
     26 C26        21.7850  -22.5751    4.2061 C.ar      1 <0>         0.0350 
     27 C27        20.7305  -22.2434    6.8173 C.ar      1 <0>         0.2100 
     28 C28        16.0234  -26.4199    7.4022 C.ar      1 <0>         0.1567 
     29 C29        21.5977  -23.1399    9.8971 C.ar      1 <0>        -0.2330 
     30 C30        15.7516  -22.8144    5.2958 C.3       1 <0>        -0.0233 
     31 C31        13.7428  -19.8257    3.1198 C.2       1 <0>         0.6995 
     32 C32        13.7904  -17.3660    2.8518 C.3       1 <0>         0.2500 
     33 N1         22.7528  -22.9023    1.8045 N.1       1 <0>        -0.4300 
     34 N2         21.8574  -25.2989   10.5437 N.2       1 <0>        -0.5630 
     35 N3         22.5710  -23.2014   10.8913 N.pl3     1 <0>        -0.0735 
     36 N4         14.6319  -20.8049    3.5135 N.am      1 <0>        -0.2219 
     37 N5         20.2319  -22.0787    8.1247 N.pl3     1 <0>        -0.6300 
     38 N6         17.0551  -23.8238    7.1874 N.pl3     1 <0>        -0.5376 
     39 O1         12.6859  -20.0272    2.5209 O.2       1 <0>        -0.4970 
     40 O2         18.6406  -25.8828    7.0493 O.2       1 <0>        -0.4680 
     41 O3         17.5581  -25.2943    9.2658 O.2       1 <0>        -0.4680 
     42 O4         14.2033  -18.5935    3.4666 O.3       1 <0>        -0.3300 
     43 S1         17.4710  -25.4041    7.8012 S.o2      1 <0>         0.8327 
     44 H1         15.5142  -28.4850   10.1543 H         1 <0>         0.0600 
     45 H2         17.0434  -27.7535    9.7147 H         1 <0>         0.0600 
     46 H3         15.7309  -26.7491   10.3457 H         1 <0>         0.0600 
     47 H4         12.6599  -16.6892    1.1076 H         1 <0>         0.0600 
     48 H5         12.2845  -18.3373    1.5938 H         1 <0>         0.0600 
     49 H6         13.7793  -17.9822    0.7361 H         1 <0>         0.0600 
     50 H7         15.4716  -16.2328    3.6773 H         1 <0>         0.0600 
     51 H8         15.7188  -16.7229    2.0055 H         1 <0>         0.0600 
     52 H9         14.6280  -15.4037    2.3751 H         1 <0>         0.0600 
     53 H10        13.2002  -16.6335    4.8262 H         1 <0>         0.0600 
     54 H11        12.3824  -15.8216    3.4953 H         1 <0>         0.0600 
     55 H12        11.9102  -17.4516    3.9529 H         1 <0>         0.0600 
     56 H13        24.0919  -22.4856   12.1396 H         1 <0>         0.0600 
     57 H14        23.8155  -21.5407   10.6647 H         1 <0>         0.0600 
     58 H15        22.6607  -21.4446   12.0137 H         1 <0>         0.0600 
     59 H16        12.9125  -28.5126    6.2976 H         1 <0>         0.1150 
     60 H17        13.8927  -26.8298    4.7494 H         1 <0>         0.1150 
     61 H18        13.8785  -28.8380    8.5480 H         1 <0>         0.1150 
     62 H19        15.8445  -25.4935    5.4502 H         1 <0>         0.1150 
     63 H20        19.8510  -21.8768    3.5263 H         1 <0>         0.1150 
     64 H21        23.5889  -23.2324    5.2087 H         1 <0>         0.1150 
     65 H22        18.9327  -21.5824    5.7887 H         1 <0>         0.1150 
     66 H23        22.6713  -22.9516    7.4781 H         1 <0>         0.1150 
     67 H24        20.4269  -24.8063    9.0057 H         1 <0>         0.0750 
     68 H25        23.3462  -24.8626   11.9774 H         1 <0>         0.0780 
     69 H26        13.5952  -22.7822    5.1857 H         1 <0>         0.0600 
     70 H27        14.3189  -24.1106    4.3177 H         1 <0>         0.0600 
     71 H28        16.9486  -21.1537    6.0023 H         1 <0>         0.0600 
     72 H29        15.2333  -20.9405    6.2355 H         1 <0>         0.0600 
     73 H30        13.4085  -22.3818    2.7630 H         1 <0>         0.0600 
     74 H31        15.1235  -22.5848    2.5417 H         1 <0>         0.0600 
     75 H32        16.7651  -20.7338    3.6070 H         1 <0>         0.0600 
     76 H33        15.9280  -19.4487    4.4298 H         1 <0>         0.0600 
     77 H34        18.4034  -22.0836    9.1655 H         1 <0>         0.0600 
     78 H35        19.0712  -23.6522    8.8029 H         1 <0>         0.0600 
     79 H36        18.6697  -22.8667    6.2491 H         1 <0>         0.0733 
     80 H37        17.5268  -21.7790    6.9841 H         1 <0>         0.0733 
     81 H38        22.0406  -21.3482    8.8583 H         1 <0>         0.0600 
     82 H39        20.7005  -21.1909    9.9561 H         1 <0>         0.0600 
     83 H40        15.1594  -22.9519    7.3619 H         1 <0>         0.0733 
     84 H41        15.1492  -24.4732    6.5465 H         1 <0>         0.0733 
     85 H42        16.5860  -23.2380    4.7368 H         1 <0>         0.0600 
@<TRIPOS>BOND
     1    1   44 1    
     2    1   46 1    
     3    1   45 1    
     4    1   25 1    
     5    2   32 1    
     6    2   47 1    
     7    2   48 1    
     8    2   49 1    
     9    3   32 1    
    10    3   50 1    
    11    3   52 1    
    12    3   51 1    
    13    4   54 1    
    14    4   53 1    
    15    4   55 1    
    16    4   32 1    
    17    5   57 1    
    18    5   35 1    
    19    5   58 1    
    20    5   56 1    
    21    6    8 ar   
    22    6   59 1    
    23    6    7 ar   
    24    7    9 ar   
    25    7   60 1    
    26    8   25 ar   
    27    8   61 1    
    28    9   28 ar   
    29    9   62 1    
    30   10   63 1    
    31   10   12 ar   
    32   10   26 ar   
    33   11   26 ar   
    34   11   13 ar   
    35   11   64 1    
    36   12   65 1    
    37   12   27 ar   
    38   13   27 ar   
    39   13   66 1    
    40   14   34 ar   
    41   14   29 ar   
    42   14   67 1    
    43   15   68 1    
    44   15   34 ar   
    45   15   35 ar   
    46   16   69 1    
    47   16   18 1    
    48   16   30 1    
    49   16   70 1    
    50   17   30 1    
    51   17   72 1    
    52   17   19 1    
    53   17   71 1    
    54   18   74 1    
    55   18   73 1    
    56   18   36 1    
    57   19   75 1    
    58   19   36 1    
    59   19   76 1    
    60   20   37 1    
    61   20   21 1    
    62   20   77 1    
    63   20   78 1    
    64   21   79 1    
    65   21   80 1    
    66   21   38 1    
    67   22   29 1    
    68   22   81 1    
    69   22   82 1    
    70   22   37 1    
    71   23   38 1    
    72   23   30 1    
    73   23   83 1    
    74   23   84 1    
    75   24   33 3    
    76   24   26 1    
    77   25   28 ar   
    78   27   37 1    
    79   28   43 1    
    80   29   35 ar   
    81   30   85 1    
    82   31   36 am   BACKBONE|DICT|INTERRES
    83   31   42 1    
    84   31   39 2    
    85   32   42 1    
    86   38   43 1    
    87   40   43 2    
    88   41   43 2    
@<TRIPOS>SUBSTRUCTURE
     1 <0>         1 GROUP             0       ****    0 ROOT    
@<TRIPOS>MOLECULE
fnta-ligand
85   88    1
SMALL
USER_CHARGES


@<TRIPOS>ATOM
      1 C1         15.6629  -28.1193    8.2118 C.3       1 <0>        -0.0650 
      2 C2         13.5907  -16.2004    3.1880 C.3       1 <0>        -0.1800 
      3 C3         13.6318  -17.1893    0.8294 C.3       1 <0>        -0.1800 
      4 C4         15.7471  -16.4209    1.9326 C.3       1 <0>        -0.1800 
      5 C5         22.7803  -22.0574   11.7237 C.3       1 <0>        -0.0575 
      6 C6         12.9511  -26.9429    5.7960 C.ar      1 <0>        -0.1150 
      7 C7         13.4058  -25.6689    5.4158 C.ar      1 <0>        -0.1150 
      8 C8         13.7048  -27.7162    6.6976 C.ar      1 <0>        -0.1150 
      9 C9         14.6192  -25.1769    5.9293 C.ar      1 <0>        -0.1150 
     10 C10        20.5720  -22.1819    4.3137 C.ar      1 <0>        -0.1150 
     11 C11        22.6173  -22.9269    5.4082 C.ar      1 <0>        -0.1150 
     12 C12        19.9709  -21.9834    5.5720 C.ar      1 <0>        -0.1150 
     13 C13        22.0152  -22.7264    6.6647 C.ar      1 <0>        -0.1150 
     14 C14        21.3369  -24.4172    9.3683 C.ar      1 <0>         0.1850 
     15 C15        22.5659  -24.4662   11.1170 C.ar      1 <0>         0.2750 
     16 C16        13.8783  -22.3755    4.8390 C.3       1 <0>        -0.1200 
     17 C17        16.0673  -21.1363    5.0535 C.3       1 <0>        -0.1200 
     18 C18        13.7110  -21.7920    3.4242 C.3       1 <0>        -0.0703 
     19 C19        15.8627  -20.5716    3.6358 C.3       1 <0>        -0.0703 
     20 C20        18.7696  -22.5927    8.2278 C.3       1 <0>         0.1267 
     21 C21        17.9612  -22.6370    6.9186 C.3       1 <0>         0.0588 
     22 C22        20.9707  -21.8406    9.1953 C.3       1 <0>         0.2240 
     23 C23        15.4746  -22.9420    6.6791 C.3       1 <0>         0.0588 
     24 C24        22.5137  -22.8752    2.9323 C.1       1 <0>         0.3950 
     25 C25        14.9255  -27.2352    7.2211 C.ar      1 <0>        -0.1150 
     26 C26        21.8959  -22.6567    4.2292 C.ar      1 <0>         0.0350 
     27 C27        20.6869  -22.2527    6.7620 C.ar      1 <0>         0.2100 
     28 C28        15.3975  -25.9546    6.8148 C.ar      1 <0>         0.1567 
     29 C29        21.5057  -23.1131    9.7818 C.ar      1 <0>        -0.2330 
     30 C30        15.3591  -22.4869    5.2271 C.3       1 <0>        -0.0233 
     31 C31        13.7964  -19.3718    2.8697 C.2       1 <0>         0.6995 
     32 C32        14.3737  -17.0670    2.1778 C.3       1 <0>         0.2500 
     33 N1         23.0057  -23.0503    1.9001 N.1       1 <0>        -0.4300 
     34 N2         22.0144  -25.2788   10.2265 N.2       1 <0>        -0.5630 
     35 N3         22.3106  -23.1658   10.9170 N.pl3     1 <0>        -0.0735 
     36 N4         14.4341  -20.5208    3.2913 N.am      1 <0>        -0.2219 
     37 N5         20.1109  -22.0519    8.0321 N.pl3     1 <0>        -0.6300 
     38 N6         16.7894  -23.5304    7.0052 N.pl3     1 <0>        -0.5376 
     39 O1         12.5903  -19.2734    2.6420 O.2       1 <0>        -0.4970 
     40 O2         18.0773  -25.7568    6.6090 O.2       1 <0>        -0.4680 
     41 O3         16.9878  -25.3348    8.8598 O.2       1 <0>        -0.4680 
     42 O4         14.6896  -18.3572    2.7175 O.3       1 <0>        -0.3300 
     43 S1         16.9529  -25.2245    7.3931 S.o2      1 <0>         0.8327 
     44 H1         15.2380  -29.1229    8.2409 H         1 <0>         0.0600 
     45 H2         16.7123  -28.2238    7.9500 H         1 <0>         0.0600 
     46 H3         15.5927  -27.7018    9.2164 H         1 <0>         0.0600 
     47 H4         13.4801  -15.1791    2.8224 H         1 <0>         0.0600 
     48 H5         14.1051  -16.1512    4.1482 H         1 <0>         0.0600 
     49 H6         12.5861  -16.5802    3.3707 H         1 <0>         0.0600 
     50 H7         14.1810  -17.8232    0.1325 H         1 <0>         0.0600 
     51 H8         12.6337  -17.6115    0.9432 H         1 <0>         0.0600 
     52 H9         13.5108  -16.2126    0.3600 H         1 <0>         0.0600 
     53 H10        16.3568  -17.0219    1.2566 H         1 <0>         0.0600 
     54 H11        15.6488  -15.4276    1.4935 H         1 <0>         0.0600 
     55 H12        16.3003  -16.3120    2.8656 H         1 <0>         0.0600 
     56 H13        23.4820  -22.4112   12.4798 H         1 <0>         0.0600 
     57 H14        23.2846  -21.3274   11.0901 H         1 <0>         0.0600 
     58 H15        21.9357  -21.5805   12.2211 H         1 <0>         0.0600 
     59 H16        12.0185  -27.3232    5.4055 H         1 <0>         0.1150 
     60 H17        12.8230  -25.0668    4.7341 H         1 <0>         0.1150 
     61 H18        13.3328  -28.6869    6.9918 H         1 <0>         0.1150 
     62 H19        14.9459  -24.1916    5.6364 H         1 <0>         0.1150 
     63 H20        20.0101  -21.9699    3.4153 H         1 <0>         0.1150 
     64 H21        23.6325  -23.2935    5.3562 H         1 <0>         0.1150 
     65 H22        18.9580  -21.6129    5.6094 H         1 <0>         0.1150 
     66 H23        22.5806  -22.9499    7.5576 H         1 <0>         0.1150 
     67 H24        20.7768  -24.7968    8.5263 H         1 <0>         0.0750 
     68 H25        23.1719  -24.8277   11.9350 H         1 <0>         0.0780 
     69 H26        13.3597  -21.7411    5.5578 H         1 <0>         0.0600 
     70 H27        13.4027  -23.3546    4.8969 H         1 <0>         0.0600 
     71 H28        17.1318  -21.2434    5.2619 H         1 <0>         0.0600 
     72 H29        15.6827  -20.4262    5.7856 H         1 <0>         0.0600 
     73 H30        12.6496  -21.6845    3.2004 H         1 <0>         0.0600 
     74 H31        14.1046  -22.4902    2.6856 H         1 <0>         0.0600 
     75 H32        16.4378  -21.1654    2.9253 H         1 <0>         0.0600 
     76 H33        16.2658  -19.5606    3.5767 H         1 <0>         0.0600 
     77 H34        18.2298  -22.0114    8.9739 H         1 <0>         0.0600 
     78 H35        18.8734  -23.5961    8.6382 H         1 <0>         0.0600 
     79 H36        18.5970  -22.9707    6.0981 H         1 <0>         0.0733 
     80 H37        17.6345  -21.6311    6.6536 H         1 <0>         0.0733 
     81 H38        21.8115  -21.2134    8.8969 H         1 <0>         0.0600 
     82 H39        20.4222  -21.2671    9.9423 H         1 <0>         0.0600 
     83 H40        15.3010  -22.0973    7.3444 H         1 <0>         0.0733 
     84 H41        14.6816  -23.6514    6.9194 H         1 <0>         0.0733 
     85 H42        15.8505  -23.2506    4.6243 H         1 <0>         0.0600 
@<TRIPOS>BOND
     1    1   44 1    
     2    1   46 1    
     3    1   45 1    
     4    1   25 1    
     5    2   32 1    
     6    2   47 1    
     7    2   48 1    
     8    2   49 1    
     9    3   32 1    
    10    3   50 1    
    11    3   52 1    
    12    3   51 1    
    13    4   54 1    
    14    4   53 1    
    15    4   55 1    
    16    4   32 1    
    17    5   57 1    
    18    5   35 1    
    19    5   58 1    
    20    5   56 1    
    21    6    8 ar   
    22    6   59 1    
    23    6    7 ar   
    24    7    9 ar   
    25    7   60 1    
    26    8   25 ar   
    27    8   61 1    
    28    9   28 ar   
    29    9   62 1    
    30   10   63 1    
    31   10   12 ar   
    32   10   26 ar   
    33   11   26 ar   
    34   11   13 ar   
    35   11   64 1    
    36   12   65 1    
    37   12   27 ar   
    38   13   27 ar   
    39   13   66 1    
    40   14   34 ar   
    41   14   29 ar   
    42   14   67 1    
    43   15   68 1    
    44   15   34 ar   
    45   15   35 ar   
    46   16   69 1    
    47   16   18 1    
    48   16   30 1    
    49   16   70 1    
    50   17   30 1    
    51   17   72 1    
    52   17   19 1    
    53   17   71 1    
    54   18   74 1    
    55   18   73 1    
    56   18   36 1    
    57   19   75 1    
    58   19   36 1    
    59   19   76 1    
    60   20   37 1    
    61   20   21 1    
    62   20   77 1    
    63   20   78 1    
    64   21   79 1    
    65   21   80 1    
    66   21   38 1    
    67   22   29 1    
    68   22   81 1    
    69   22   82 1    
    70   22   37 1    
    71   23   38 1    
    72   23   30 1    
    73   23   83 1    
    74   23   84 1    
    75   24   33 3    
    76   24   26 1    
    77   25   28 ar   
    78   27   37 1    
    79   28   43 1    
    80   29   35 ar   
    81   30   85 1    
    82   31   36 am   BACKBONE|DICT|INTERRES
    83   31   42 1    
    84   31   39 2    
    85   32   42 1    
    86   38   43 1    
    87   40   43 2    
    88   41   43 2    
@<TRIPOS>SUBSTRUCTURE
     1 <0>         1 GROUP             0       ****    0 ROOT    
@<TRIPOS>MOLECULE
fnta-ligand
85   88    1
SMALL
USER_CHARGES


@<TRIPOS>ATOM
      1 C1         15.5872  -27.7704    9.1556 C.3       1 <0>        -0.0650 
      2 C2         13.6955  -16.3628    2.3038 C.3       1 <0>        -0.1800 
      3 C3         15.5731  -16.6617    4.0148 C.3       1 <0>        -0.1800 
      4 C4         13.2755  -17.5556    4.4661 C.3       1 <0>        -0.1800 
      5 C5         21.4360  -22.2171   12.4834 C.3       1 <0>        -0.0575 
      6 C6         13.2945  -27.4586    6.1191 C.ar      1 <0>        -0.1150 
      7 C7         13.8904  -26.4186    5.3860 C.ar      1 <0>        -0.1150 
      8 C8         13.8686  -27.8796    7.3324 C.ar      1 <0>        -0.1150 
      9 C9         15.0656  -25.8104    5.8626 C.ar      1 <0>        -0.1150 
     10 C10        20.5928  -22.0351    4.5390 C.ar      1 <0>        -0.1150 
     11 C11        22.6797  -22.6703    5.6239 C.ar      1 <0>        -0.1150 
     12 C12        19.9724  -21.9220    5.7986 C.ar      1 <0>        -0.1150 
     13 C13        22.0583  -22.5553    6.8817 C.ar      1 <0>        -0.1150 
     14 C14        21.7533  -24.3013    9.5244 C.ar      1 <0>         0.1850 
     15 C15        22.0545  -24.4780   11.6335 C.ar      1 <0>         0.2750 
     16 C16        14.0654  -22.7667    4.7993 C.3       1 <0>        -0.1200 
     17 C17        16.0705  -21.3064    5.2687 C.3       1 <0>        -0.1200 
     18 C18        13.9483  -22.1217    3.4063 C.3       1 <0>        -0.0703 
     19 C19        15.9190  -20.6841    3.8685 C.3       1 <0>        -0.0703 
     20 C20        18.8061  -22.7094    8.4253 C.3       1 <0>         0.1267 
     21 C21        17.9920  -22.7353    7.1191 C.3       1 <0>         0.0588 
     22 C22        20.9396  -21.8249    9.4314 C.3       1 <0>         0.2240 
     23 C23        15.5598  -23.2611    6.7428 C.3       1 <0>         0.0588 
     24 C24        22.5860  -22.5426    3.1504 C.1       1 <0>         0.3950 
     25 C25        15.0489  -27.2784    7.8233 C.ar      1 <0>        -0.1150 
     26 C26        21.9473  -22.4121    4.4490 C.ar      1 <0>         0.0350 
     27 C27        20.6993  -22.1801    6.9845 C.ar      1 <0>         0.2100 
     28 C28        15.6656  -26.2419    7.0662 C.ar      1 <0>         0.1567 
     29 C29        21.4264  -23.0846   10.0839 C.ar      1 <0>        -0.2330 
     30 C30        15.5121  -22.7355    5.3110 C.3       1 <0>        -0.0233 
     31 C31        13.7975  -19.6783    2.9836 C.2       1 <0>         0.6995 
     32 C32        14.3195  -17.2902    3.3691 C.3       1 <0>         0.2500 
     33 N1         23.0946  -22.6476    2.1167 N.1       1 <0>        -0.4300 
     34 N2         22.1518  -25.1896   10.5193 N.2       1 <0>        -0.5630 
     35 N3         21.6328  -23.2185   11.4546 N.pl3     1 <0>        -0.0735 
     36 N4         14.5274  -20.7722    3.4019 N.am      1 <0>        -0.2219 
     37 N5         20.1038  -22.0634    8.2560 N.pl3     1 <0>        -0.6300 
     38 N6         16.9004  -23.7282    7.1504 N.pl3     1 <0>        -0.5376 
     39 O1         12.5880  -19.6796    2.7522 O.2       1 <0>        -0.4970 
     40 O2         18.3171  -25.8748    6.7535 O.2       1 <0>        -0.4680 
     41 O3         17.2858  -25.4705    9.0347 O.2       1 <0>        -0.4680 
     42 O4         14.6034  -18.5919    2.8394 O.3       1 <0>        -0.3300 
     43 S1         17.1896  -25.3981    7.5684 S.o2      1 <0>         0.8327 
     44 H1         15.0852  -28.6846    9.4732 H         1 <0>         0.0600 
     45 H2         16.6496  -27.9917    9.1000 H         1 <0>         0.0600 
     46 H3         15.4260  -27.0193    9.9291 H         1 <0>         0.0600 
     47 H4         13.3556  -15.4282    2.7511 H         1 <0>         0.0600 
     48 H5         12.8333  -16.8314    1.8283 H         1 <0>         0.0600 
     49 H6         14.4021  -16.0974    1.5181 H         1 <0>         0.0600 
     50 H7         16.0199  -17.3349    4.7471 H         1 <0>         0.0600 
     51 H8         16.3396  -16.4187    3.2793 H         1 <0>         0.0600 
     52 H9         15.3237  -15.7338    4.5304 H         1 <0>         0.0600 
     53 H10        13.6559  -18.2436    5.2222 H         1 <0>         0.0600 
     54 H11        12.9861  -16.6347    4.9734 H         1 <0>         0.0600 
     55 H12        12.3705  -17.9953    4.0466 H         1 <0>         0.0600 
     56 H13        21.7880  -22.5900   13.4458 H         1 <0>         0.0600 
     57 H14        21.9928  -21.3144   12.2311 H         1 <0>         0.0600 
     58 H15        20.3761  -21.9760   12.5641 H         1 <0>         0.0600 
     59 H16        12.3906  -27.9266    5.7573 H         1 <0>         0.1150 
     60 H17        13.4449  -26.0837    4.4607 H         1 <0>         0.1150 
     61 H18        13.3887  -28.6698    7.8915 H         1 <0>         0.1150 
     62 H19        15.5015  -25.0049    5.2932 H         1 <0>         0.1150 
     63 H20        20.0220  -21.8331    3.6440 H         1 <0>         0.1150 
     64 H21        23.7187  -22.9623    5.5675 H         1 <0>         0.1150 
     65 H22        18.9356  -21.6255    5.8406 H         1 <0>         0.1150 
     66 H23        22.6333  -22.7682    7.7710 H         1 <0>         0.1150 
     67 H24        21.7253  -24.6026    8.4875 H         1 <0>         0.0750 
     68 H25        22.2977  -24.8846   12.6045 H         1 <0>         0.0780 
     69 H26        13.4192  -22.2383    5.5003 H         1 <0>         0.0600 
     70 H27        13.7036  -23.7944    4.7657 H         1 <0>         0.0600 
     71 H28        17.1194  -21.3065    5.5649 H         1 <0>         0.0600 
     72 H29        15.5471  -20.6887    5.9985 H         1 <0>         0.0600 
     73 H30        12.9037  -22.1200    3.0951 H         1 <0>         0.0600 
     74 H31        14.4799  -22.7263    2.6714 H         1 <0>         0.0600 
     75 H32        16.6156  -21.1665    3.1828 H         1 <0>         0.0600 
     76 H33        16.2054  -19.6327    3.8961 H         1 <0>         0.0600 
     77 H34        18.2325  -22.2127    9.2064 H         1 <0>         0.0600 
     78 H35        18.9846  -23.7250    8.7756 H         1 <0>         0.0600 
     79 H36        18.6460  -22.9591    6.2758 H         1 <0>         0.0733 
     80 H37        17.5795  -21.7452    6.9229 H         1 <0>         0.0733 
     81 H38        21.8037  -21.2321    9.1292 H         1 <0>         0.0600 
     82 H39        20.3880  -21.2069   10.1395 H         1 <0>         0.0600 
     83 H40        15.2433  -22.4796    7.4324 H         1 <0>         0.0733 
     84 H41        14.8316  -24.0617    6.8784 H         1 <0>         0.0733 
     85 H42        16.1368  -23.4021    4.7165 H         1 <0>         0.0600 
@<TRIPOS>BOND
     1    1   44 1    
     2    1   46 1    
     3    1   45 1    
     4    1   25 1    
     5    2   32 1    
     6    2   47 1    
     7    2   48 1    
     8    2   49 1    
     9    3   32 1    
    10    3   50 1    
    11    3   52 1    
    12    3   51 1    
    13    4   54 1    
    14    4   53 1    
    15    4   55 1    
    16    4   32 1    
    17    5   57 1    
    18    5   35 1    
    19    5   58 1    
    20    5   56 1    
    21    6    8 ar   
    22    6   59 1    
    23    6    7 ar   
    24    7    9 ar   
    25    7   60 1    
    26    8   25 ar   
    27    8   61 1    
    28    9   28 ar   
    29    9   62 1    
    30   10   63 1    
    31   10   12 ar   
    32   10   26 ar   
    33   11   26 ar   
    34   11   13 ar   
    35   11   64 1    
    36   12   65 1    
    37   12   27 ar   
    38   13   27 ar   
    39   13   66 1    
    40   14   34 ar   
    41   14   29 ar   
    42   14   67 1    
    43   15   68 1    
    44   15   34 ar   
    45   15   35 ar   
    46   16   69 1    
    47   16   18 1    
    48   16   30 1    
    49   16   70 1    
    50   17   30 1    
    51   17   72 1    
    52   17   19 1    
    53   17   71 1    
    54   18   74 1    
    55   18   73 1    
    56   18   36 1    
    57   19   75 1    
    58   19   36 1    
    59   19   76 1    
    60   20   37 1    
    61   20   21 1    
    62   20   77 1    
    63   20   78 1    
    64   21   79 1    
    65   21   80 1    
    66   21   38 1    
    67   22   29 1    
    68   22   81 1    
    69   22   82 1    
    70   22   37 1    
    71   23   38 1    
    72   23   30 1    
    73   23   83 1    
    74   23   84 1    
    75   24   33 3    
    76   24   26 1    
    77   25   28 ar   
    78   27   37 1    
    79   28   43 1    
    80   29   35 ar   
    81   30   85 1    
    82   31   36 am   BACKBONE|DICT|INTERRES
    83   31   42 1    
    84   31   39 2    
    85   32   42 1    
    86   38   43 1    
    87   40   43 2    
    88   41   43 2    
@<TRIPOS>SUBSTRUCTURE
     1 <0>         1 GROUP             0       ****    0 ROOT    
@<TRIPOS>MOLECULE
fnta-ligand
85   88    1
SMALL
USER_CHARGES


@<TRIPOS>ATOM
      1 C1         15.9060  -27.6604    9.4537 C.3       1 <0>        -0.0650 
      2 C2         13.4882  -17.7871    0.8912 C.3       1 <0>        -0.1800 
      3 C3         15.1700  -16.4412    2.2706 C.3       1 <0>        -0.1800 
      4 C4         12.8772  -16.9225    3.1614 C.3       1 <0>        -0.1800 
      5 C5         21.4115  -22.2842   12.5995 C.3       1 <0>        -0.0575 
      6 C6         13.5846  -27.6781    6.4231 C.ar      1 <0>        -0.1150 
      7 C7         14.1212  -26.6613    5.6153 C.ar      1 <0>        -0.1150 
      8 C8         14.1862  -27.9841    7.6573 C.ar      1 <0>        -0.1150 
      9 C9         15.2651  -25.9614    6.0391 C.ar      1 <0>        -0.1150 
     10 C10        20.6173  -22.0337    4.6797 C.ar      1 <0>        -0.1150 
     11 C11        22.6196  -22.8445    5.8063 C.ar      1 <0>        -0.1150 
     12 C12        19.9926  -21.8424    5.9276 C.ar      1 <0>        -0.1150 
     13 C13        21.9940  -22.6512    7.0524 C.ar      1 <0>        -0.1150 
     14 C14        21.7984  -24.2052    9.5400 C.ar      1 <0>         0.1850 
     15 C15        22.0984  -24.4801   11.6388 C.ar      1 <0>         0.2750 
     16 C16        14.1858  -22.9387    4.7376 C.3       1 <0>        -0.1200 
     17 C17        16.0296  -21.3215    5.3364 C.3       1 <0>        -0.1200 
     18 C18        14.0857  -22.2780    3.3507 C.3       1 <0>        -0.0703 
     19 C19        15.8976  -20.6862    3.9402 C.3       1 <0>        -0.0703 
     20 C20        18.7304  -22.4972    8.5556 C.3       1 <0>         0.1267 
     21 C21        17.9772  -22.6124    7.2180 C.3       1 <0>         0.0588 
     22 C22        20.9129  -21.7519    9.5692 C.3       1 <0>         0.2240 
     23 C23        15.6146  -23.3424    6.7502 C.3       1 <0>         0.0588 
     24 C24        22.5733  -22.7488    3.3301 C.1       1 <0>         0.3950 
     25 C25        15.3357  -27.2899    8.0956 C.ar      1 <0>        -0.1150 
     26 C26        21.9315  -22.5378    4.6165 C.ar      1 <0>         0.0350 
     27 C27        20.6750  -22.1483    7.1284 C.ar      1 <0>         0.2100 
     28 C28        15.8932  -26.2771    7.2640 C.ar      1 <0>         0.1567 
     29 C29        21.4344  -23.0285   10.1590 C.ar      1 <0>        -0.2330 
     30 C30        15.5959  -22.7939    5.3263 C.3       1 <0>        -0.0233 
     31 C31        13.7456  -19.8484    2.9591 C.2       1 <0>         0.6995 
     32 C32        14.0268  -17.4783    2.3051 C.3       1 <0>         0.2500 
     33 N1         23.0843  -22.9180    2.3061 N.1       1 <0>        -0.4300 
     34 N2         22.2197  -25.1310   10.4903 N.2       1 <0>        -0.5630 
     35 N3         21.6406  -23.2259   11.5221 N.pl3     1 <0>        -0.0735 
     36 N4         14.5449  -20.8839    3.3985 N.am      1 <0>        -0.2219 
     37 N5         20.0752  -21.9555    8.3886 N.pl3     1 <0>        -0.6300 
     38 N6         16.9690  -23.6904    7.2255 N.pl3     1 <0>        -0.5376 
     39 O1         12.5832  -19.9661    2.5700 O.2       1 <0>        -0.4970 
     40 O2         18.5075  -25.7582    6.8658 O.2       1 <0>        -0.4680 
     41 O3         17.5107  -25.3347    9.1589 O.2       1 <0>        -0.4680 
     42 O4         14.4258  -18.6709    2.9936 O.3       1 <0>        -0.3300 
     43 S1         17.3732  -25.3226    7.6941 S.o2      1 <0>         0.8327 
     44 H1         15.4544  -28.5755    9.8375 H         1 <0>         0.0600 
     45 H2         16.9782  -27.8293    9.4042 H         1 <0>         0.0600 
     46 H3         15.7094  -26.8674   10.1754 H         1 <0>         0.0600 
     47 H4         13.0590  -16.8951    0.4339 H         1 <0>         0.0600 
     48 H5         12.7071  -18.5473    0.9234 H         1 <0>         0.0600 
     49 H6         14.2674  -18.1426    0.2178 H         1 <0>         0.0600 
     50 H7         15.5594  -16.2493    3.2709 H         1 <0>         0.0600 
     51 H8         16.0039  -16.7653    1.6485 H         1 <0>         0.0600 
     52 H9         14.8230  -15.4905    1.8649 H         1 <0>         0.0600 
     53 H10        13.1987  -16.7292    4.1856 H         1 <0>         0.0600 
     54 H11        12.4919  -15.9871    2.7543 H         1 <0>         0.0600 
     55 H12        12.0460  -17.6264    3.2047 H         1 <0>         0.0600 
     56 H13        21.7714  -22.6953   13.5433 H         1 <0>         0.0600 
     57 H14        21.9424  -21.3541   12.3958 H         1 <0>         0.0600 
     58 H15        20.3447  -22.0785   12.6877 H         1 <0>         0.0600 
     59 H16        12.7046  -28.2163    6.1020 H         1 <0>         0.1150 
     60 H17        13.6539  -26.4145    4.6732 H         1 <0>         0.1150 
     61 H18        13.7514  -28.7580    8.2732 H         1 <0>         0.1150 
     62 H19        15.6552  -25.1752    5.4121 H         1 <0>         0.1150 
     63 H20        20.0808  -21.7936    3.7729 H         1 <0>         0.1150 
     64 H21        23.6270  -23.2338    5.7706 H         1 <0>         0.1150 
     65 H22        18.9879  -21.4491    5.9489 H         1 <0>         0.1150 
     66 H23        22.5337  -22.9028    7.9537 H         1 <0>         0.1150 
     67 H24        21.7823  -24.4541    8.4890 H         1 <0>         0.0750 
     68 H25        22.3505  -24.9283   12.5889 H         1 <0>         0.0780 
     69 H26        13.4607  -22.4820    5.4113 H         1 <0>         0.0600 
     70 H27        13.9168  -23.9927    4.6686 H         1 <0>         0.0600 
     71 H28        17.0578  -21.2377    5.6882 H         1 <0>         0.0600 
     72 H29        15.4175  -20.7661    6.0469 H         1 <0>         0.0600 
     73 H30        13.0624  -22.3595    2.9841 H         1 <0>         0.0600 
     74 H31        14.7051  -22.8196    2.6358 H         1 <0>         0.0600 
     75 H32        16.6681  -21.0931    3.2852 H         1 <0>         0.0600 
     76 H33        16.0900  -19.6150    3.9996 H         1 <0>         0.0600 
     77 H34        18.1565  -21.8844    9.2492 H         1 <0>         0.0600 
     78 H35        18.8234  -23.4783    9.0189 H         1 <0>         0.0600 
     79 H36        18.6823  -22.7970    6.4070 H         1 <0>         0.0733 
     80 H37        17.4948  -21.6630    6.9843 H         1 <0>         0.0733 
     81 H38        21.7604  -21.1247    9.2903 H         1 <0>         0.0600 
     82 H39        20.3513  -21.1814   10.3086 H         1 <0>         0.0600 
     83 H40        15.1883  -22.6085    7.4329 H         1 <0>         0.0733 
     84 H41        14.9591  -24.2103    6.8319 H         1 <0>         0.0733 
     85 H42        16.3060  -23.3922    4.7556 H         1 <0>         0.0600 
@<TRIPOS>BOND
     1    1   44 1    
     2    1   46 1    
     3    1   45 1    
     4    1   25 1    
     5    2   32 1    
     6    2   47 1    
     7    2   48 1    
     8    2   49 1    
     9    3   32 1    
    10    3   50 1    
    11    3   52 1    
    12    3   51 1    
    13    4   54 1    
    14    4   53 1    
    15    4   55 1    
    16    4   32 1    
    17    5   57 1    
    18    5   35 1    
    19    5   58 1    
    20    5   56 1    
    21    6    8 ar   
    22    6   59 1    
    23    6    7 ar   
    24    7    9 ar   
    25    7   60 1    
    26    8   25 ar   
    27    8   61 1    
    28    9   28 ar   
    29    9   62 1    
    30   10   63 1    
    31   10   12 ar   
    32   10   26 ar   
    33   11   26 ar   
    34   11   13 ar   
    35   11   64 1    
    36   12   65 1    
    37   12   27 ar   
    38   13   27 ar   
    39   13   66 1    
    40   14   34 ar   
    41   14   29 ar   
    42   14   67 1    
    43   15   68 1    
    44   15   34 ar   
    45   15   35 ar   
    46   16   69 1    
    47   16   18 1    
    48   16   30 1    
    49   16   70 1    
    50   17   30 1    
    51   17   72 1    
    52   17   19 1    
    53   17   71 1    
    54   18   74 1    
    55   18   73 1    
    56   18   36 1    
    57   19   75 1    
    58   19   36 1    
    59   19   76 1    
    60   20   37 1    
    61   20   21 1    
    62   20   77 1    
    63   20   78 1    
    64   21   79 1    
    65   21   80 1    
    66   21   38 1    
    67   22   29 1    
    68   22   81 1    
    69   22   82 1    
    70   22   37 1    
    71   23   38 1    
    72   23   30 1    
    73   23   83 1    
    74   23   84 1    
    75   24   33 3    
    76   24   26 1    
    77   25   28 ar   
    78   27   37 1    
    79   28   43 1    
    80   29   35 ar   
    81   30   85 1    
    82   31   36 am   BACKBONE|DICT|INTERRES
    83   31   42 1    
    84   31   39 2    
    85   32   42 1    
    86   38   43 1    
    87   40   43 2    
    88   41   43 2    
@<TRIPOS>SUBSTRUCTURE
     1 <0>         1 GROUP             0       ****    0 ROOT    
@<TRIPOS>MOLECULE
fnta-ligand
85   88    1
SMALL
USER_CHARGES


@<TRIPOS>ATOM
      1 C1         15.7752  -27.6478    9.3228 C.3       1 <0>        -0.0650 
      2 C2         16.2037  -17.9576    4.7700 C.3       1 <0>        -0.1800 
      3 C3         14.1438  -19.1240    5.6643 C.3       1 <0>        -0.1800 
      4 C4         13.9369  -17.3502    3.8165 C.3       1 <0>        -0.1800 
      5 C5         21.7656  -22.2112   12.6450 C.3       1 <0>        -0.0575 
      6 C6         13.3830  -27.6752    6.3560 C.ar      1 <0>        -0.1150 
      7 C7         14.0864  -26.9789    5.3668 C.ar      1 <0>        -0.1150 
      8 C8         13.9504  -27.8741    7.6267 C.ar      1 <0>        -0.1150 
      9 C9         15.3752  -26.5149    5.6449 C.ar      1 <0>        -0.1150 
     10 C10        21.0447  -20.5894    5.1883 C.ar      1 <0>        -0.1150 
     11 C11        22.8337  -22.1142    5.8227 C.ar      1 <0>        -0.1150 
     12 C12        20.3549  -20.9115    6.3729 C.ar      1 <0>        -0.1150 
     13 C13        22.1430  -22.4331    7.0068 C.ar      1 <0>        -0.1150 
     14 C14        21.7871  -24.4553    9.7972 C.ar      1 <0>         0.1850 
     15 C15        22.4107  -24.4787   11.8397 C.ar      1 <0>         0.2750 
     16 C16        14.3770  -23.2871    4.5619 C.3       1 <0>        -0.1200 
     17 C17        16.6327  -22.0510    4.5753 C.3       1 <0>        -0.1200 
     18 C18        14.2484  -22.9206    3.0709 C.3       1 <0>        -0.0703 
     19 C19        16.3687  -21.7643    3.0840 C.3       1 <0>        -0.0703 
     20 C20        19.1512  -23.2112    8.3730 C.3       1 <0>         0.1267 
     21 C21        18.1893  -23.0652    7.1885 C.3       1 <0>         0.0588 
     22 C22        20.8840  -21.9766    9.7124 C.3       1 <0>         0.2240 
     23 C23        15.8258  -23.4870    6.6221 C.3       1 <0>         0.0588 
     24 C24        22.9965  -20.8756    3.6806 C.1       1 <0>         0.3950 
     25 C25        15.2199  -27.3444    7.9417 C.ar      1 <0>        -0.1150 
     26 C26        22.2845  -21.1956    4.9070 C.ar      1 <0>         0.0350 
     27 C27        20.8870  -21.8478    7.2866 C.ar      1 <0>         0.2100 
     28 C28        15.9158  -26.6052    6.9426 C.ar      1 <0>         0.1567 
     29 C29        21.4854  -23.2150   10.3232 C.ar      1 <0>        -0.2330 
     30 C30        15.8483  -23.2961    5.0745 C.3       1 <0>        -0.0233 
     31 C31        14.2130  -20.4418    3.0634 C.2       1 <0>         0.6995 
     32 C32        14.7985  -18.4809    4.4121 C.3       1 <0>         0.2500 
     33 N1         23.5634  -20.6230    2.7050 N.1       1 <0>        -0.4300 
     34 N2         22.3858  -25.2537   10.7622 N.2       1 <0>        -0.5630 
     35 N3         21.8822  -23.2625   11.6569 N.pl3     1 <0>        -0.0735 
     36 N4         14.9192  -21.6398    2.8973 N.am      1 <0>        -0.2219 
     37 N5         20.1629  -22.1550    8.4549 N.pl3     1 <0>        -0.6300 
     38 N6         17.0682  -24.0187    7.2363 N.pl3     1 <0>        -0.5376 
     39 O1         12.9872  -20.3134    3.0465 O.2       1 <0>        -0.4970 
     40 O2         18.2916  -25.9284    5.9759 O.2       1 <0>        -0.4680 
     41 O3         18.0429  -26.0553    8.5030 O.2       1 <0>        -0.4680 
     42 O4         15.0729  -19.4575    3.4065 O.3       1 <0>        -0.3300 
     43 S1         17.4773  -25.7274    7.1856 S.o2      1 <0>         0.8327 
     44 H1         15.1663  -28.4007    9.8283 H         1 <0>         0.0600 
     45 H2         16.7774  -28.0662    9.2523 H         1 <0>         0.0600 
     46 H3         15.8000  -26.7654    9.9562 H         1 <0>         0.0600 
     47 H4         16.1878  -17.1946    5.5452 H         1 <0>         0.0600 
     48 H5         16.6965  -17.5236    3.8991 H         1 <0>         0.0600 
     49 H6         16.8432  -18.7625    5.1322 H         1 <0>         0.0600 
     50 H7         13.0992  -19.3845    5.4924 H         1 <0>         0.0600 
     51 H8         14.6574  -20.0363    5.9645 H         1 <0>         0.0600 
     52 H9         14.1608  -18.4787    6.5350 H         1 <0>         0.0600 
     53 H10        12.9442  -17.7055    3.5395 H         1 <0>         0.0600 
     54 H11        13.8001  -16.5308    4.5195 H         1 <0>         0.0600 
     55 H12        14.4009  -16.9366    2.9198 H         1 <0>         0.0600 
     56 H13        21.7864  -22.6342   13.6504 H         1 <0>         0.0600 
     57 H14        22.5865  -21.5046   12.5202 H         1 <0>         0.0600 
     58 H15        20.8201  -21.6842   12.5235 H         1 <0>         0.0600 
     59 H16        12.4100  -28.0795    6.1202 H         1 <0>         0.1150 
     60 H17        13.6656  -26.8690    4.3786 H         1 <0>         0.1150 
     61 H18        13.3910  -28.4373    8.3601 H         1 <0>         0.1150 
     62 H19        15.9413  -26.0737    4.8438 H         1 <0>         0.1150 
     63 H20        20.6158  -19.8769    4.4975 H         1 <0>         0.1150 
     64 H21        23.7870  -22.5794    5.6246 H         1 <0>         0.1150 
     65 H22        19.4087  -20.4326    6.5760 H         1 <0>         0.1150 
     66 H23        22.5991  -23.1334    7.6858 H         1 <0>         0.1150 
     67 H24        21.6449  -24.8356    8.7969 H         1 <0>         0.0750 
     68 H25        22.8180  -24.8086   12.7841 H         1 <0>         0.0780 
     69 H26        13.7961  -22.5730    5.1481 H         1 <0>         0.0600 
     70 H27        13.9106  -24.2552    4.7328 H         1 <0>         0.0600 
     71 H28        17.7032  -22.1924    4.6911 H         1 <0>         0.0600 
     72 H29        16.3768  -21.1796    5.1750 H         1 <0>         0.0600 
     73 H30        13.2019  -22.8751    2.7671 H         1 <0>         0.0600 
     74 H31        14.7182  -23.6835    2.4490 H         1 <0>         0.0600 
     75 H32        16.7470  -22.5874    2.4753 H         1 <0>         0.0600 
     76 H33        16.9179  -20.8841    2.7442 H         1 <0>         0.0600 
     77 H34        18.5883  -23.2248    9.3054 H         1 <0>         0.0600 
     78 H35        19.6532  -24.1719    8.2941 H         1 <0>         0.0600 
     79 H36        18.7430  -23.2332    6.2652 H         1 <0>         0.0733 
     80 H37        17.8053  -22.0458    7.1761 H         1 <0>         0.0733 
     81 H38        21.6674  -21.2263    9.5828 H         1 <0>         0.0600 
     82 H39        20.1718  -21.5389   10.4106 H         1 <0>         0.0600 
     83 H40        15.5757  -22.5361    7.0944 H         1 <0>         0.0733 
     84 H41        15.0002  -24.1364    6.9088 H         1 <0>         0.0733 
     85 H42        16.3593  -24.1291    4.6046 H         1 <0>         0.0600 
@<TRIPOS>BOND
     1    1   44 1    
     2    1   46 1    
     3    1   45 1    
     4    1   25 1    
     5    2   32 1    
     6    2   47 1    
     7    2   48 1    
     8    2   49 1    
     9    3   32 1    
    10    3   50 1    
    11    3   52 1    
    12    3   51 1    
    13    4   54 1    
    14    4   53 1    
    15    4   55 1    
    16    4   32 1    
    17    5   57 1    
    18    5   35 1    
    19    5   58 1    
    20    5   56 1    
    21    6    8 ar   
    22    6   59 1    
    23    6    7 ar   
    24    7    9 ar   
    25    7   60 1    
    26    8   25 ar   
    27    8   61 1    
    28    9   28 ar   
    29    9   62 1    
    30   10   63 1    
    31   10   12 ar   
    32   10   26 ar   
    33   11   26 ar   
    34   11   13 ar   
    35   11   64 1    
    36   12   65 1    
    37   12   27 ar   
    38   13   27 ar   
    39   13   66 1    
    40   14   34 ar   
    41   14   29 ar   
    42   14   67 1    
    43   15   68 1    
    44   15   34 ar   
    45   15   35 ar   
    46   16   69 1    
    47   16   18 1    
    48   16   30 1    
    49   16   70 1    
    50   17   30 1    
    51   17   72 1    
    52   17   19 1    
    53   17   71 1    
    54   18   74 1    
    55   18   73 1    
    56   18   36 1    
    57   19   75 1    
    58   19   36 1    
    59   19   76 1    
    60   20   37 1    
    61   20   21 1    
    62   20   77 1    
    63   20   78 1    
    64   21   79 1    
    65   21   80 1    
    66   21   38 1    
    67   22   29 1    
    68   22   81 1    
    69   22   82 1    
    70   22   37 1    
    71   23   38 1    
    72   23   30 1    
    73   23   83 1    
    74   23   84 1    
    75   24   33 3    
    76   24   26 1    
    77   25   28 ar   
    78   27   37 1    
    79   28   43 1    
    80   29   35 ar   
    81   30   85 1    
    82   31   36 am   BACKBONE|DICT|INTERRES
    83   31   42 1    
    84   31   39 2    
    85   32   42 1    
    86   38   43 1    
    87   40   43 2    
    88   41   43 2    
@<TRIPOS>SUBSTRUCTURE
     1 <0>         1 GROUP             0       ****    0 ROOT    
