@<TRIPOS>MOLECULE
fpps-ligand
22   22    1
SMALL
USER_CHARGES


@<TRIPOS>ATOM
      1 C1         10.2960   39.3480   -1.3442 C.ar      1 <0>         0.1850 
      2 C2          9.7026   38.2337   -1.8827 C.ar      1 <0>        -0.2860 
      3 C3         11.8012   38.2583   -2.3756 C.ar      1 <0>         0.2750 
      4 C4         10.6291   36.2248   -3.2223 C.3       1 <0>         0.0025 
      5 C5          9.3061   35.8261   -3.9431 C.3       1 <0>        -0.1308 
      6 N1         11.6562   39.3416   -1.6311 N.2       1 <0>        -0.5630 
      7 N2         10.6936   37.5216   -2.5471 N.pl3     1 <0>        -0.0735 
      8 O1          8.7901   36.9424   -4.6306 O.3       1 <0>        -0.6830 
      9 O2         10.1463   36.0486   -6.4050 O.co2     1 <0>        -1.1200 
     10 O3          8.5642   34.1425   -6.0299 O.co2     1 <0>        -1.1200 
     11 O4          7.1824   36.2620   -2.1871 O.co2     1 <0>        -1.1200 
     12 O5          7.1193   34.1425   -3.4781 O.co2     1 <0>        -1.1200 
     13 O6         10.9291   33.9778   -5.1711 O.co2     1 <0>        -1.1200 
     14 O7          8.7883   34.3978   -1.6299 O.co2     1 <0>        -1.1200 
     15 P1          9.7625   34.8923   -5.4852 P.3       1 <0>         1.5578 
     16 P2          8.0124   35.1077   -2.7340 P.3       1 <0>         1.5578 
     17 H1          9.8534   40.1436   -0.7636 H         1 <0>         0.0750 
     18 H2          8.6790   37.9194   -1.8328 H         1 <0>         0.1870 
     19 H3         12.7622   37.9901   -2.7804 H         1 <0>         0.0780 
     20 H4         10.9026   35.4529   -2.5056 H         1 <0>         0.0600 
     21 H5         11.4371   36.2308   -3.9542 H         1 <0>         0.0600 
     22 H6          9.1946   36.7741   -5.5072 H         1 <0>         0.4180 
@<TRIPOS>BOND
     1    1    2 ar   
     2    1    6 ar   
     3    1   17 1    
     4    2    7 ar   
     5    2   18 1    
     6    3    6 ar   
     7    3    7 ar   
     8    3   19 1    
     9    4    5 1    
    10    4    7 1    
    11    4   20 1    
    12    4   21 1    
    13    5    8 1    
    14    5   15 1    
    15    5   16 1    
    16    8   22 1    
    17    9   15 2    
    18   10   15 1    
    19   11   16 2    
    20   12   16 1    
    21   13   15 1    
    22   14   16 1    
@<TRIPOS>SUBSTRUCTURE
     1 <0>         1 GROUP             0       ****    0 ROOT    
@<TRIPOS>MOLECULE
fpps-ligand
22   22    1
SMALL
USER_CHARGES


@<TRIPOS>ATOM
      1 C1          9.9883   37.7424   -7.7143 C.ar      1 <0>         0.1850 
      2 C2          9.6786   36.5788   -7.0606 C.ar      1 <0>        -0.2860 
      3 C3          9.5883   38.2397   -5.6631 C.ar      1 <0>         0.2750 
      4 C4          8.8687   35.9529   -4.7867 C.3       1 <0>         0.0025 
      5 C5          8.9713   36.1658   -3.2453 C.3       1 <0>        -0.1308 
      6 N1          9.9323   38.8034   -6.8187 N.2       1 <0>        -0.5630 
      7 N2          9.4097   36.9102   -5.7380 N.pl3     1 <0>        -0.0735 
      8 O1          8.6250   37.4736   -2.8299 O.3       1 <0>        -0.6830 
      9 O2          8.4578   33.8894   -1.6299 O.co2     1 <0>        -1.1200 
     10 O3          7.0062   34.2762   -3.6099 O.co2     1 <0>        -1.1200 
     11 O4         11.0201   37.7277   -2.7150 O.co2     1 <0>        -1.1200 
     12 O5         10.7883   35.7425   -1.2299 O.co2     1 <0>        -1.1200 
     13 O6          6.7883   35.7764   -1.6299 O.co2     1 <0>        -1.1200 
     14 O7         11.5882   35.4654   -3.6299 O.co2     1 <0>        -1.1200 
     15 P1          7.7442   34.9425   -2.4569 P.3       1 <0>         1.5578 
     16 P2         10.7169   36.2393   -2.6603 P.3       1 <0>         1.5578 
     17 H1         10.2504   37.8962   -8.7507 H         1 <0>         0.0750 
     18 H2          9.5985   35.5642   -7.4238 H         1 <0>         0.1870 
     19 H3          9.4261   38.8250   -4.7706 H         1 <0>         0.0780 
     20 H4          9.2962   34.9761   -5.0168 H         1 <0>         0.0600 
     21 H5          7.8228   35.8902   -5.0753 H         1 <0>         0.0600 
     22 H6          9.5174   37.8205   -2.6218 H         1 <0>         0.4180 
@<TRIPOS>BOND
     1    1    2 ar   
     2    1    6 ar   
     3    1   17 1    
     4    2    7 ar   
     5    2   18 1    
     6    3    6 ar   
     7    3    7 ar   
     8    3   19 1    
     9    4    5 1    
    10    4    7 1    
    11    4   20 1    
    12    4   21 1    
    13    5    8 1    
    14    5   15 1    
    15    5   16 1    
    16    8   22 1    
    17    9   15 2    
    18   10   15 1    
    19   11   16 2    
    20   12   16 1    
    21   13   15 1    
    22   14   16 1    
@<TRIPOS>SUBSTRUCTURE
     1 <0>         1 GROUP             0       ****    0 ROOT    
@<TRIPOS>MOLECULE
fpps-ligand
22   22    1
SMALL
USER_CHARGES


@<TRIPOS>ATOM
      1 C1          8.7878   39.9410   -2.5699 C.ar      1 <0>         0.1850 
      2 C2          9.3370   39.1063   -3.5153 C.ar      1 <0>        -0.2860 
      3 C3          9.1324   38.0553   -1.6299 C.ar      1 <0>         0.2750 
      4 C4         10.0936   36.6768   -3.4880 C.3       1 <0>         0.0025 
      5 C5          9.0632   35.7986   -4.2410 C.3       1 <0>        -0.1308 
      6 N1          8.6622   39.2665   -1.3592 N.2       1 <0>        -0.5630 
      7 N2          9.5431   37.8832   -2.8935 N.pl3     1 <0>        -0.0735 
      8 O1          8.3883   36.5424   -5.2299 O.3       1 <0>        -0.6830 
      9 O2          9.0301   33.7425   -6.0298 O.co2     1 <0>        -1.1200 
     10 O3         11.1883   34.2187   -4.8298 O.co2     1 <0>        -1.1200 
     11 O4          7.0517   36.1426   -2.3819 O.co2     1 <0>        -1.1200 
     12 O5          6.8843   34.1425   -3.8415 O.co2     1 <0>        -1.1200 
     13 O6         10.2809   35.8466   -6.5399 O.co2     1 <0>        -1.1200 
     14 O7          8.6063   34.2020   -2.0006 O.co2     1 <0>        -1.1200 
     15 P1          9.9603   34.7967   -5.4809 P.3       1 <0>         1.5578 
     16 P2          7.8264   35.0069   -3.0358 P.3       1 <0>         1.5578 
     17 H1          8.4782   40.9708   -2.6704 H         1 <0>         0.0750 
     18 H2          9.5708   39.2751   -4.5561 H         1 <0>         0.1870 
     19 H3          9.1572   37.2631   -0.8959 H         1 <0>         0.0780 
     20 H4         10.5687   36.0843   -2.7056 H         1 <0>         0.0600 
     21 H5         10.8938   36.9839   -4.1620 H         1 <0>         0.0600 
     22 H6          8.9707   36.3426   -5.9915 H         1 <0>         0.4180 
@<TRIPOS>BOND
     1    1    2 ar   
     2    1    6 ar   
     3    1   17 1    
     4    2    7 ar   
     5    2   18 1    
     6    3    6 ar   
     7    3    7 ar   
     8    3   19 1    
     9    4    5 1    
    10    4    7 1    
    11    4   20 1    
    12    4   21 1    
    13    5    8 1    
    14    5   15 1    
    15    5   16 1    
    16    8   22 1    
    17    9   15 2    
    18   10   15 1    
    19   11   16 2    
    20   12   16 1    
    21   13   15 1    
    22   14   16 1    
@<TRIPOS>SUBSTRUCTURE
     1 <0>         1 GROUP             0       ****    0 ROOT    
@<TRIPOS>MOLECULE
fpps-ligand
22   22    1
SMALL
USER_CHARGES


@<TRIPOS>ATOM
      1 C1          9.5886   39.0557   -6.9934 C.ar      1 <0>         0.1850 
      2 C2          9.1891   37.7810   -6.6784 C.ar      1 <0>        -0.2860 
      3 C3          9.7769   38.8366   -4.8709 C.ar      1 <0>         0.2750 
      4 C4          8.9395   36.4460   -4.5857 C.3       1 <0>         0.0025 
      5 C5          8.8348   36.4368   -3.0333 C.3       1 <0>        -0.1308 
      6 N1          9.9883   39.7121   -5.8412 N.2       1 <0>        -0.5630 
      7 N2          9.2909   37.6605   -5.2990 N.pl3     1 <0>        -0.0735 
      8 O1          8.1954   37.5565   -2.4299 O.3       1 <0>        -0.6830 
      9 O2          7.4789   34.1445   -3.8946 O.co2     1 <0>        -1.1200 
     10 O3          6.4478   35.4526   -2.0298 O.co2     1 <0>        -1.1200 
     11 O4         11.5882   36.8267   -3.3357 O.co2     1 <0>        -1.1200 
     12 O5         10.2952   38.1404   -1.6299 O.co2     1 <0>        -1.1200 
     13 O6          8.4607   33.9923   -1.6299 O.co2     1 <0>        -1.1200 
     14 O7         10.7887   35.7424   -1.2299 O.co2     1 <0>        -1.1200 
     15 P1          7.7500   34.9092   -2.6013 P.3       1 <0>         1.5578 
     16 P2         10.5054   36.7775   -2.2710 P.3       1 <0>         1.5578 
     17 H1          9.6482   39.5451   -7.9545 H         1 <0>         0.0750 
     18 H2          8.8364   36.9666   -7.2956 H         1 <0>         0.1870 
     19 H3          9.9810   39.0819   -3.8425 H         1 <0>         0.0780 
     20 H4          9.6488   35.6730   -4.8837 H         1 <0>         0.0600 
     21 H5          7.9883   36.1425   -5.0181 H         1 <0>         0.0600 
     22 H6          8.9796   37.9553   -1.9669 H         1 <0>         0.4180 
@<TRIPOS>BOND
     1    1    2 ar   
     2    1    6 ar   
     3    1   17 1    
     4    2    7 ar   
     5    2   18 1    
     6    3    6 ar   
     7    3    7 ar   
     8    3   19 1    
     9    4    5 1    
    10    4    7 1    
    11    4   20 1    
    12    4   21 1    
    13    5    8 1    
    14    5   15 1    
    15    5   16 1    
    16    8   22 1    
    17    9   15 2    
    18   10   15 1    
    19   11   16 2    
    20   12   16 1    
    21   13   15 1    
    22   14   16 1    
@<TRIPOS>SUBSTRUCTURE
     1 <0>         1 GROUP             0       ****    0 ROOT    
@<TRIPOS>MOLECULE
fpps-ligand
22   22    1
SMALL
USER_CHARGES


@<TRIPOS>ATOM
      1 C1         10.3882   36.7118   -8.6480 C.ar      1 <0>         0.1850 
      2 C2          9.9486   35.7679   -7.7501 C.ar      1 <0>        -0.2860 
      3 C3          9.3672   37.7424   -7.0717 C.ar      1 <0>         0.2750 
      4 C4          8.6074   35.8611   -5.5902 C.3       1 <0>         0.0025 
      5 C5          9.1978   36.2012   -4.1909 C.3       1 <0>        -0.1308 
      6 N1          9.9883   37.9797   -8.2245 N.2       1 <0>        -0.5630 
      7 N2          9.2710   36.4491   -6.7454 N.pl3     1 <0>        -0.0735 
      8 O1          9.1883   37.5986   -3.9649 O.3       1 <0>        -0.6830 
      9 O2          7.1883   34.3675   -3.6595 O.co2     1 <0>        -1.1200 
     10 O3          7.1889   36.4431   -2.2820 O.co2     1 <0>        -1.1200 
     11 O4         11.1883   34.4818   -4.7287 O.co2     1 <0>        -1.1200 
     12 O5         11.6156   36.9349   -5.1676 O.co2     1 <0>        -1.1200 
     13 O6          8.8628   34.6079   -1.8089 O.co2     1 <0>        -1.1200 
     14 O7         11.5883   36.1424   -2.8299 O.co2     1 <0>        -1.1200 
     15 P1          8.0610   35.3424   -2.8781 P.3       1 <0>         1.5578 
     16 P2         11.0220   35.8978   -4.2168 P.3       1 <0>         1.5578 
     17 H1         10.9521   36.5748   -9.5594 H         1 <0>         0.0750 
     18 H2         10.0699   34.6946   -7.7316 H         1 <0>         0.1870 
     19 H3          8.9486   38.5290   -6.4598 H         1 <0>         0.0780 
     20 H4          8.6322   34.7792   -5.7226 H         1 <0>         0.0600 
     21 H5          7.5579   36.1424   -5.6299 H         1 <0>         0.0600 
     22 H6         10.1125   37.8230   -3.9000 H         1 <0>         0.4180 
@<TRIPOS>BOND
     1    1    2 ar   
     2    1    6 ar   
     3    1   17 1    
     4    2    7 ar   
     5    2   18 1    
     6    3    6 ar   
     7    3    7 ar   
     8    3   19 1    
     9    4    5 1    
    10    4    7 1    
    11    4   20 1    
    12    4   21 1    
    13    5    8 1    
    14    5   15 1    
    15    5   16 1    
    16    8   22 1    
    17    9   15 2    
    18   10   15 1    
    19   11   16 2    
    20   12   16 1    
    21   13   15 1    
    22   14   16 1    
@<TRIPOS>SUBSTRUCTURE
     1 <0>         1 GROUP             0       ****    0 ROOT    
@<TRIPOS>MOLECULE
fpps-ligand
22   22    1
SMALL
USER_CHARGES


@<TRIPOS>ATOM
      1 C1         10.3857   36.8968   -8.6209 C.ar      1 <0>         0.1850 
      2 C2          9.9406   35.9109   -7.7725 C.ar      1 <0>        -0.2860 
      3 C3          9.3773   37.8521   -6.9874 C.ar      1 <0>         0.2750 
      4 C4          8.6286   35.8967   -5.5953 C.3       1 <0>         0.0025 
      5 C5          9.2250   36.1949   -4.1887 C.3       1 <0>        -0.1308 
      6 N1          9.9883   38.1424   -8.1337 N.2       1 <0>        -0.5630 
      7 N2          9.2772   36.5435   -6.7270 N.pl3     1 <0>        -0.0735 
      8 O1          9.1883   37.5771   -3.8845 O.3       1 <0>        -0.6830 
      9 O2          7.4481   34.1425   -3.6656 O.co2     1 <0>        -1.1200 
     10 O3          7.1122   36.2778   -2.4167 O.co2     1 <0>        -1.1200 
     11 O4         11.6584   36.8979   -5.1853 O.co2     1 <0>        -1.1200 
     12 O5         11.5883   36.1425   -2.8299 O.co2     1 <0>        -1.1200 
     13 O6          8.9560   34.6968   -1.7404 O.co2     1 <0>        -1.1200 
     14 O7         11.1883   34.4603   -4.7132 O.co2     1 <0>        -1.1200 
     15 P1          8.1407   35.2626   -2.8988 P.3       1 <0>         1.5578 
     16 P2         11.0410   35.8854   -4.2225 P.3       1 <0>         1.5578 
     17 H1         10.9442   36.8037   -9.5410 H         1 <0>         0.0750 
     18 H2         10.0547   34.8375   -7.8108 H         1 <0>         0.1870 
     19 H3          8.9647   38.6127   -6.3397 H         1 <0>         0.0780 
     20 H4          8.6841   34.8221   -5.7706 H         1 <0>         0.0600 
     21 H5          7.5703   36.1424   -5.6254 H         1 <0>         0.0600 
     22 H6         10.0960   37.7936   -3.6961 H         1 <0>         0.4180 
@<TRIPOS>BOND
     1    1    2 ar   
     2    1    6 ar   
     3    1   17 1    
     4    2    7 ar   
     5    2   18 1    
     6    3    6 ar   
     7    3    7 ar   
     8    3   19 1    
     9    4    5 1    
    10    4    7 1    
    11    4   20 1    
    12    4   21 1    
    13    5    8 1    
    14    5   15 1    
    15    5   16 1    
    16    8   22 1    
    17    9   15 2    
    18   10   15 1    
    19   11   16 2    
    20   12   16 1    
    21   13   15 1    
    22   14   16 1    
@<TRIPOS>SUBSTRUCTURE
     1 <0>         1 GROUP             0       ****    0 ROOT    
@<TRIPOS>MOLECULE
fpps-ligand
22   22    1
SMALL
USER_CHARGES


@<TRIPOS>ATOM
      1 C1         11.4946   33.6274   -8.2824 C.ar      1 <0>         0.1850 
      2 C2         11.3658   33.3408   -6.9422 C.ar      1 <0>        -0.2860 
      3 C3         10.3887   35.2221   -7.3849 C.ar      1 <0>         0.2750 
      4 C4         10.2566   34.4371   -4.9523 C.3       1 <0>         0.0025 
      5 C5          9.4721   35.6742   -4.4266 C.3       1 <0>        -0.1308 
      6 N1         10.8647   34.8351   -8.5622 N.2       1 <0>        -0.5630 
      7 N2         10.6473   34.3833   -6.3645 N.pl3     1 <0>        -0.0735 
      8 O1          8.3880   35.9041   -5.3042 O.3       1 <0>        -0.6830 
      9 O2          7.5058   34.1449   -3.6063 O.co2     1 <0>        -1.1200 
     10 O3          7.5787   36.3437   -2.4423 O.co2     1 <0>        -1.1200 
     11 O4         11.5882   36.9434   -3.1716 O.co2     1 <0>        -1.1200 
     12 O5         11.3692   37.3424   -5.6289 O.co2     1 <0>        -1.1200 
     13 O6          9.2452   34.5424   -1.8252 O.co2     1 <0>        -1.1200 
     14 O7          9.7250   38.4007   -4.0685 O.co2     1 <0>        -1.1200 
     15 P1          8.4129   35.1708   -2.9341 P.3       1 <0>         1.5578 
     16 P2         10.6108   37.1968   -4.3096 P.3       1 <0>         1.5578 
     17 H1         11.9830   33.0598   -9.0616 H         1 <0>         0.0750 
     18 H2         11.7145   32.4935   -6.3693 H         1 <0>         0.1870 
     19 H3          9.8380   36.1441   -7.2819 H         1 <0>         0.0780 
     20 H4         11.1460   34.2877   -4.3396 H         1 <0>         0.0600 
     21 H5          9.6316   33.5579   -4.8299 H         1 <0>         0.0600 
     22 H6          7.7096   35.3762   -4.8725 H         1 <0>         0.4180 
@<TRIPOS>BOND
     1    1    2 ar   
     2    1    6 ar   
     3    1   17 1    
     4    2    7 ar   
     5    2   18 1    
     6    3    6 ar   
     7    3    7 ar   
     8    3   19 1    
     9    4    5 1    
    10    4    7 1    
    11    4   20 1    
    12    4   21 1    
    13    5    8 1    
    14    5   15 1    
    15    5   16 1    
    16    8   22 1    
    17    9   15 2    
    18   10   15 1    
    19   11   16 2    
    20   12   16 1    
    21   13   15 1    
    22   14   16 1    
@<TRIPOS>SUBSTRUCTURE
     1 <0>         1 GROUP             0       ****    0 ROOT    
