@<TRIPOS>MOLECULE
gcr-ligand
73   78    1
SMALL
USER_CHARGES


@<TRIPOS>ATOM
      1 C1         44.6511   26.2352   10.0681 C.3       1 <0>        -0.1800 
      2 C2         40.9790   30.6616    5.5420 C.3       1 <0>        -0.1800 
      3 C3         40.0780   26.2120   10.8075 C.3       1 <0>        -0.1800 
      4 C4         37.5226   29.7192    8.3880 C.3       1 <0>        -0.1800 
      5 C5         37.7306   37.0427    4.1539 C.ar      1 <0>        -0.1150 
      6 C6         38.0896   37.5017    5.4271 C.ar      1 <0>        -0.1150 
      7 C7         37.4024   35.6866    3.9837 C.ar      1 <0>        -0.1150 
      8 C8         38.0741   36.6011    6.5006 C.ar      1 <0>        -0.1150 
      9 C9         37.4789   34.7754    5.0526 C.ar      1 <0>        -0.1150 
     10 C10        42.3996   26.8789    8.9865 C.3       1 <0>        -0.1200 
     11 C11        40.5331   28.5172   11.8369 C.3       1 <0>        -0.1200 
     12 C12        38.1797   31.6796    9.8096 C.3       1 <0>        -0.1200 
     13 C13        36.9629   34.0183    9.6543 C.3       1 <0>         0.0025 
     14 C14        40.8308   29.1366    7.4704 C.2       1 <0>        -0.1150 
     15 C15        39.0774   32.3442    7.0936 C.2       1 <0>        -0.1150 
     16 C16        41.8726   26.2464   14.0094 C.3       1 <0>         0.1450 
     17 C17        37.8023   35.2424    6.3351 C.ar      1 <0>         0.1225 
     18 C18        43.1153   26.1817   10.1685 C.3       1 <0>        -0.0600 
     19 C19        41.5409   27.9627    9.6280 C.3       1 <0>        -0.0600 
     20 C20        39.4027   29.2964   11.1282 C.3       1 <0>         0.2050 
     21 C21        40.3851   28.5996    8.8237 C.3       1 <0>        -0.0600 
     22 C22        39.7788   29.7399    9.6758 C.3       1 <0>        -0.0600 
     23 C23        40.4097   30.2853    6.8995 C.2       1 <0>         0.0000 
     24 C24        37.7468   32.8997    9.0625 C.2       1 <0>         0.0000 
     25 C25        39.4173   31.1221    7.5864 C.2       1 <0>         0.0000 
     26 C26        38.1532   33.1674    7.8381 C.2       1 <0>         0.1225 
     27 C27        42.3402   25.7490   12.6394 C.2       1 <0>         0.4700 
     28 C28        41.1254   27.3632   10.9824 C.3       1 <0>         0.0000 
     29 C29        38.7306   30.5664    8.8695 C.3       1 <0>         0.0000 
     30 C30        42.4934   26.7719   11.4851 C.3       1 <0>         0.2650 
     31 N1         37.0019   34.9510    8.5097 N.2       1 <0>        -0.1225 
     32 N2         37.6358   34.4569    7.5393 N.pl3     1 <0>         0.7550 
     33 O1         40.6045   25.6938   14.3215 O.3       1 <0>        -0.6830 
     34 O2         38.2112   28.5598   11.1836 O.3       1 <0>        -0.6830 
     35 O3         43.3283   27.8260   11.9544 O.3       1 <0>        -0.6830 
     36 O4         42.6023   24.5600   12.4798 O.2       1 <0>        -0.4700 
     37 H1         45.1235   25.7757   10.9372 H         1 <0>         0.0600 
     38 H2         45.0009   25.7030    9.1841 H         1 <0>         0.0600 
     39 H3         45.0019   27.2639    9.9848 H         1 <0>         0.0600 
     40 H4         40.2042   31.0489    4.8847 H         1 <0>         0.0600 
     41 H5         41.7524   31.4192    5.6579 H         1 <0>         0.0600 
     42 H6         41.4238   29.8019    5.0395 H         1 <0>         0.0600 
     43 H7         40.4992   25.3344   10.3204 H         1 <0>         0.0600 
     44 H8         39.6814   25.8770   11.7643 H         1 <0>         0.0600 
     45 H9         39.2142   26.4898   10.2115 H         1 <0>         0.0600 
     46 H10        37.7994   29.0034    7.6135 H         1 <0>         0.0600 
     47 H11        37.0345   29.1604    9.1804 H         1 <0>         0.0600 
     48 H12        36.7431   30.3615    7.9834 H         1 <0>         0.0600 
     49 H13        37.6885   37.7266    3.3179 H         1 <0>         0.1150 
     50 H14        38.3182   38.5430    5.5978 H         1 <0>         0.1150 
     51 H15        37.0730   35.3577    3.0201 H         1 <0>         0.1150 
     52 H16        38.2024   36.9599    7.5019 H         1 <0>         0.1150 
     53 H17        37.2050   33.7600    4.8829 H         1 <0>         0.1150 
     54 H18        43.0696   27.3337    8.2696 H         1 <0>         0.0600 
     55 H19        41.8023   26.1579    8.4337 H         1 <0>         0.0600 
     56 H20        41.3104   29.2471   12.0599 H         1 <0>         0.0600 
     57 H21        40.2025   28.1588   12.8084 H         1 <0>         0.0600 
     58 H22        38.9356   32.0196   10.5173 H         1 <0>         0.0600 
     59 H23        37.3421   31.2951   10.3835 H         1 <0>         0.0600 
     60 H24        35.9395   33.7413    9.9021 H         1 <0>         0.0600 
     61 H25        37.4556   34.4460   10.5286 H         1 <0>         0.0600 
     62 H26        41.5392   28.5218    6.9352 H         1 <0>         0.1150 
     63 H27        39.5388   32.7453    6.2034 H         1 <0>         0.1150 
     64 H28        42.5934   25.9286   14.7633 H         1 <0>         0.0600 
     65 H29        41.8294   27.3342   14.0397 H         1 <0>         0.0600 
     66 H30        42.8494   25.1258   10.0885 H         1 <0>         0.0600 
     67 H31        42.2218   28.7881    9.8342 H         1 <0>         0.0600 
     68 H32        39.2115   30.1678   11.7482 H         1 <0>         0.0600 
     69 H33        39.6303   27.8460    8.6035 H         1 <0>         0.0600 
     70 H34        40.6030   30.4383    9.8387 H         1 <0>         0.0600 
     71 H35        39.9766   26.0171   13.6868 H         1 <0>         0.4180 
     72 H36        38.1862   28.1073   12.0270 H         1 <0>         0.4180 
     73 H37        44.1336   27.4434   12.2864 H         1 <0>         0.4180 
@<TRIPOS>BOND
     1    1   18 1    
     2    1   37 1    
     3    1   38 1    
     4    1   39 1    
     5    2   23 1    
     6    2   40 1    
     7    2   41 1    
     8    2   42 1    
     9    3   28 1    
    10    3   43 1    
    11    3   44 1    
    12    3   45 1    
    13    4   29 1    
    14    4   46 1    
    15    4   47 1    
    16    4   48 1    
    17    5    6 ar   
    18    5    7 ar   
    19    5   49 1    
    20    6    8 ar   
    21    6   50 1    
    22    7    9 ar   
    23    7   51 1    
    24    8   17 ar   
    25    8   52 1    
    26    9   17 ar   
    27    9   53 1    
    28   10   18 1    
    29   10   19 1    
    30   10   54 1    
    31   10   55 1    
    32   11   20 1    
    33   11   28 1    
    34   11   56 1    
    35   11   57 1    
    36   12   24 1    
    37   12   29 1    
    38   12   58 1    
    39   12   59 1    
    40   13   24 1    
    41   13   31 1    
    42   13   60 1    
    43   13   61 1    
    44   14   21 1    
    45   14   23 2    
    46   14   62 1    
    47   15   25 2    
    48   15   26 1    
    49   15   63 1    
    50   16   27 1    
    51   16   33 1    
    52   16   64 1    
    53   16   65 1    
    54   17   32 1    
    55   18   30 1    
    56   18   66 1    
    57   19   21 1    
    58   19   28 1    
    59   19   67 1    
    60   20   22 1    
    61   20   34 1    
    62   20   68 1    
    63   21   22 1    
    64   21   69 1    
    65   22   29 1    
    66   22   70 1    
    67   23   25 1    
    68   24   26 2    
    69   25   29 1    
    70   26   32 1    
    71   27   30 1    
    72   27   36 2    
    73   28   30 1    
    74   30   35 1    
    75   31   32 2    
    76   33   71 1    
    77   34   72 1    
    78   35   73 1    
@<TRIPOS>SUBSTRUCTURE
     1 <0>         1 GROUP             0       ****    0 ROOT    
@<TRIPOS>MOLECULE
gcr-ligand
73   78    1
SMALL
USER_CHARGES


@<TRIPOS>ATOM
      1 C1         44.6654   26.2271   10.1157 C.3       1 <0>        -0.1800 
      2 C2         41.0209   30.6028    5.5507 C.3       1 <0>        -0.1800 
      3 C3         40.0957   26.1893   10.8901 C.3       1 <0>        -0.1800 
      4 C4         37.5526   29.7002    8.3744 C.3       1 <0>        -0.1800 
      5 C5         37.7462   37.0328    4.1632 C.ar      1 <0>        -0.1150 
      6 C6         38.1028   37.4793    5.4407 C.ar      1 <0>        -0.1150 
      7 C7         37.3991   35.6838    3.9838 C.ar      1 <0>        -0.1150 
      8 C8         38.0764   36.5789    6.5133 C.ar      1 <0>        -0.1150 
      9 C9         37.4733   34.7691    5.0499 C.ar      1 <0>        -0.1150 
     10 C10        42.3915   26.7797    9.0383 C.3       1 <0>        -0.1200 
     11 C11        40.5421   28.5085   11.8577 C.3       1 <0>        -0.1200 
     12 C12        38.2205   31.6498    9.8050 C.3       1 <0>        -0.1200 
     13 C13        36.9807   33.9721    9.6455 C.3       1 <0>         0.0025 
     14 C14        40.8559   29.0825    7.4840 C.2       1 <0>        -0.1150 
     15 C15        39.1252   32.3126    7.0951 C.2       1 <0>        -0.1150 
     16 C16        42.0869   26.4192   14.1166 C.3       1 <0>         0.1450 
     17 C17        37.8029   35.2205    6.3363 C.ar      1 <0>         0.1225 
     18 C18        43.1332   26.1400   10.2384 C.3       1 <0>        -0.0600 
     19 C19        41.5524   27.9030    9.6470 C.3       1 <0>        -0.0600 
     20 C20        39.4149   29.2803   11.1339 C.3       1 <0>         0.2050 
     21 C21        40.4013   28.5475    8.8384 C.3       1 <0>        -0.0600 
     22 C22        39.8035   29.7007    9.6797 C.3       1 <0>        -0.0600 
     23 C23        40.4506   30.2379    6.9094 C.2       1 <0>         0.0000 
     24 C24        37.7815   32.8657    9.0568 C.2       1 <0>         0.0000 
     25 C25        39.4624   31.0873    7.5882 C.2       1 <0>         0.0000 
     26 C26        38.1889   33.1364    7.8321 C.2       1 <0>         0.1225 
     27 C27        42.3471   25.8063   12.7359 C.2       1 <0>         0.4700 
     28 C28        41.1421   27.3438   11.0210 C.3       1 <0>         0.0000 
     29 C29        38.7651   30.5334    8.8659 C.3       1 <0>         0.0000 
     30 C30        42.5125   26.7737   11.5353 C.3       1 <0>         0.2650 
     31 N1         37.0016   34.9023    8.5013 N.2       1 <0>        -0.1225 
     32 N2         37.6496   34.4207    7.5345 N.pl3     1 <0>         0.7550 
     33 O1         41.0205   25.7597   14.7622 O.3       1 <0>        -0.6830 
     34 O2         38.2124   28.5576   11.1837 O.3       1 <0>        -0.6830 
     35 O3         43.3495   27.8472   11.9572 O.3       1 <0>        -0.6830 
     36 O4         42.4231   24.5816   12.6124 O.2       1 <0>        -0.4700 
     37 H1         45.1566   25.7919   10.9881 H         1 <0>         0.0600 
     38 H2         45.0190   25.6914    9.2351 H         1 <0>         0.0600 
     39 H3         45.0031   27.2580   10.0144 H         1 <0>         0.0600 
     40 H4         40.2467   30.9833    4.8874 H         1 <0>         0.0600 
     41 H5         41.7944   31.3602    5.6584 H         1 <0>         0.0600 
     42 H6         41.4644   29.7365    5.0603 H         1 <0>         0.0600 
     43 H7         40.5152   25.2947   10.4333 H         1 <0>         0.0600 
     44 H8         39.7065   25.8912   11.8632 H         1 <0>         0.0600 
     45 H9         39.2299   26.4538   10.2890 H         1 <0>         0.0600 
     46 H10        37.8215   28.9950    7.5829 H         1 <0>         0.0600 
     47 H11        37.0605   29.1338    9.1646 H         1 <0>         0.0600 
     48 H12        36.7750   30.3522    7.9818 H         1 <0>         0.0600 
     49 H13        37.7102   37.7237    3.3336 H         1 <0>         0.1150 
     50 H14        38.3438   38.5134    5.6169 H         1 <0>         0.1150 
     51 H15        37.0625   35.3657    3.0209 H         1 <0>         0.1150 
     52 H16        38.2019   36.9587    7.5084 H         1 <0>         0.1150 
     53 H17        37.1892   33.7600    4.8750 H         1 <0>         0.1150 
     54 H18        43.0321   27.1674    8.2587 H         1 <0>         0.0600 
     55 H19        41.7866   26.0215    8.5544 H         1 <0>         0.0600 
     56 H20        41.3150   29.2471   12.0742 H         1 <0>         0.0600 
     57 H21        40.2017   28.1576   12.8296 H         1 <0>         0.0600 
     58 H22        38.9808   31.9951   10.5075 H         1 <0>         0.0600 
     59 H23        37.3846   31.2621   10.3834 H         1 <0>         0.0600 
     60 H24        35.9624   33.6772    9.8932 H         1 <0>         0.0600 
     61 H25        37.4639   34.4025   10.5217 H         1 <0>         0.0600 
     62 H26        41.5610   28.4591    6.9551 H         1 <0>         0.1150 
     63 H27        39.5901   32.7106    6.2070 H         1 <0>         0.1150 
     64 H28        42.9745   26.3003   14.7291 H         1 <0>         0.0600 
     65 H29        41.8757   27.4850   14.0444 H         1 <0>         0.0600 
     66 H30        42.8937   25.0749   10.2092 H         1 <0>         0.0600 
     67 H31        42.2515   28.7205    9.8213 H         1 <0>         0.0600 
     68 H32        39.2299   30.1640   11.7410 H         1 <0>         0.0600 
     69 H33        39.6404   27.7995    8.6241 H         1 <0>         0.0600 
     70 H34        40.6362   30.3904    9.8400 H         1 <0>         0.0600 
     71 H35        41.2513   24.8423   14.7993 H         1 <0>         0.4180 
     72 H36        38.1618   28.1075   12.0289 H         1 <0>         0.4180 
     73 H37        44.1595   27.4814   12.2940 H         1 <0>         0.4180 
@<TRIPOS>BOND
     1    1   18 1    
     2    1   37 1    
     3    1   38 1    
     4    1   39 1    
     5    2   23 1    
     6    2   40 1    
     7    2   41 1    
     8    2   42 1    
     9    3   28 1    
    10    3   43 1    
    11    3   44 1    
    12    3   45 1    
    13    4   29 1    
    14    4   46 1    
    15    4   47 1    
    16    4   48 1    
    17    5    6 ar   
    18    5    7 ar   
    19    5   49 1    
    20    6    8 ar   
    21    6   50 1    
    22    7    9 ar   
    23    7   51 1    
    24    8   17 ar   
    25    8   52 1    
    26    9   17 ar   
    27    9   53 1    
    28   10   18 1    
    29   10   19 1    
    30   10   54 1    
    31   10   55 1    
    32   11   20 1    
    33   11   28 1    
    34   11   56 1    
    35   11   57 1    
    36   12   24 1    
    37   12   29 1    
    38   12   58 1    
    39   12   59 1    
    40   13   24 1    
    41   13   31 1    
    42   13   60 1    
    43   13   61 1    
    44   14   21 1    
    45   14   23 2    
    46   14   62 1    
    47   15   25 2    
    48   15   26 1    
    49   15   63 1    
    50   16   27 1    
    51   16   33 1    
    52   16   64 1    
    53   16   65 1    
    54   17   32 1    
    55   18   30 1    
    56   18   66 1    
    57   19   21 1    
    58   19   28 1    
    59   19   67 1    
    60   20   22 1    
    61   20   34 1    
    62   20   68 1    
    63   21   22 1    
    64   21   69 1    
    65   22   29 1    
    66   22   70 1    
    67   23   25 1    
    68   24   26 2    
    69   25   29 1    
    70   26   32 1    
    71   27   30 1    
    72   27   36 2    
    73   28   30 1    
    74   30   35 1    
    75   31   32 2    
    76   33   71 1    
    77   34   72 1    
    78   35   73 1    
@<TRIPOS>SUBSTRUCTURE
     1 <0>         1 GROUP             0       ****    0 ROOT    
