@<TRIPOS>MOLECULE
glcm-ligand
34   33    1
SMALL
USER_CHARGES


@<TRIPOS>ATOM
      1 C1         36.7646   31.4103   -1.2752 C.3       1 <0>         0.1500 
      2 C2         34.6151   31.7332   -0.1297 C.3       1 <0>         0.1500 
      3 C3         36.2182   31.6951   -2.6858 C.3       1 <0>         0.1450 
      4 C4         33.7175   32.8595   -0.6681 C.3       1 <0>         0.1450 
      5 C5         36.1458   33.2322    2.0740 C.3       1 <0>         0.1450 
      6 C6         38.2884   32.5274    1.0017 C.3       1 <0>         0.1450 
      7 C7         36.6708   30.7425    1.9053 C.3       1 <0>         0.1450 
      8 C8         36.7858   32.1180    1.1796 C.3       1 <0>         0.2700 
      9 N1         36.0642   32.1161   -0.1632 N.4       1 <0>        -0.1000 
     10 O1         36.9998   30.9753   -3.6192 O.3       1 <0>        -0.6830 
     11 O2         33.9142   34.0485    0.0616 O.3       1 <0>        -0.6830 
     12 O3         34.8197   33.0142    2.5240 O.3       1 <0>        -0.6830 
     13 O4         39.0429   32.5753    2.1923 O.3       1 <0>        -0.6830 
     14 O5         37.8106   29.9718    2.1923 O.3       1 <0>        -0.6830 
     15 H1         37.8077   31.6963   -1.3334 H         1 <0>         0.0600 
     16 H2         36.7142   30.3456   -1.0721 H         1 <0>         0.0600 
     17 H3         34.4402   30.8367   -0.7252 H         1 <0>         0.0600 
     18 H4         34.2714   31.4245    0.8533 H         1 <0>         0.0600 
     19 H5         35.1795   31.3894   -2.8078 H         1 <0>         0.0600 
     20 H6         36.2809   32.7599   -2.9146 H         1 <0>         0.0600 
     21 H7         33.9092   33.0598   -1.7218 H         1 <0>         0.0600 
     22 H8         32.6696   32.5753   -0.5852 H         1 <0>         0.0600 
     23 H9         36.1622   34.1753    1.5339 H         1 <0>         0.0600 
     24 H10        36.7142   33.3753    2.9871 H         1 <0>         0.0600 
     25 H11        38.8474   31.8137    0.4006 H         1 <0>         0.0600 
     26 H12        38.3567   33.5028    0.5230 H         1 <0>         0.0600 
     27 H13        36.3142   30.9451    2.9118 H         1 <0>         0.0600 
     28 H14        35.9697   30.0802    1.3923 H         1 <0>         0.0600 
     29 H15        36.0523   33.0933   -0.4231 H         1 <0>         0.2900 
     30 H16        36.7360   30.0645   -3.6008 H         1 <0>         0.4180 
     31 H17        33.8541   33.8467    0.9921 H         1 <0>         0.4180 
     32 H18        34.7988   32.2560    3.0990 H         1 <0>         0.4180 
     33 H19        38.7143   33.2859    2.7560 H         1 <0>         0.4180 
     34 H20        37.5142   29.3051    2.8034 H         1 <0>         0.4180 
@<TRIPOS>BOND
     1    1    3 1    
     2    1    9 1    
     3    1   15 1    
     4    1   16 1    
     5    2    4 1    
     6    2    9 1    
     7    2   17 1    
     8    2   18 1    
     9    3   10 1    
    10    3   19 1    
    11    3   20 1    
    12    4   11 1    
    13    4   21 1    
    14    4   22 1    
    15    5    8 1    
    16    5   12 1    
    17    5   23 1    
    18    5   24 1    
    19    6    8 1    
    20    6   13 1    
    21    6   25 1    
    22    6   26 1    
    23    7    8 1    
    24    7   14 1    
    25    7   27 1    
    26    7   28 1    
    27    8    9 1    
    28    9   29 1    
    29   10   30 1    
    30   11   31 1    
    31   12   32 1    
    32   13   33 1    
    33   14   34 1    
@<TRIPOS>SUBSTRUCTURE
     1 <0>         1 GROUP             0       ****    0 ROOT    
@<TRIPOS>MOLECULE
glcm-ligand
34   33    1
SMALL
USER_CHARGES


@<TRIPOS>ATOM
      1 C1         36.8676   32.5753   -1.6646 C.3       1 <0>         0.1500 
      2 C2         34.5927   32.5516   -0.6272 C.3       1 <0>         0.1500 
      3 C3         36.7428   31.1907   -2.3309 C.3       1 <0>         0.1450 
      4 C4         34.0463   33.1790   -1.9246 C.3       1 <0>         0.1450 
      5 C5         38.1744   32.6693    0.9445 C.3       1 <0>         0.1450 
      6 C6         36.4360   30.7532    1.0592 C.3       1 <0>         0.1450 
      7 C7         35.9612   33.0408    2.0977 C.3       1 <0>         0.1450 
      8 C8         36.6475   32.2931    0.9067 C.3       1 <0>         0.2700 
      9 N1         36.0600   32.7808   -0.4123 N.4       1 <0>        -0.1000 
     10 O1         37.1142   31.2658   -3.6909 O.3       1 <0>        -0.6830 
     11 O2         34.3142   34.5716   -1.8968 O.3       1 <0>        -0.6830 
     12 O3         38.8408   32.5753    2.1922 O.3       1 <0>        -0.6830 
     13 O4         37.1142   30.1758    2.1634 O.3       1 <0>        -0.6830 
     14 O5         34.6629   32.5753    2.4151 O.3       1 <0>        -0.6830 
     15 H1         36.5539   33.3298   -2.3831 H         1 <0>         0.0600 
     16 H2         37.9142   32.8183   -1.5409 H         1 <0>         0.0600 
     17 H3         34.3567   31.4877   -0.6178 H         1 <0>         0.0600 
     18 H4         34.0121   33.0019    0.1723 H         1 <0>         0.0600 
     19 H5         37.4273   30.5044   -1.8513 H         1 <0>         0.0600 
     20 H6         35.7407   30.7678   -2.2734 H         1 <0>         0.0600 
     21 H7         34.4674   32.7361   -2.8265 H         1 <0>         0.0600 
     22 H8         32.9793   32.9753   -1.9898 H         1 <0>         0.0600 
     23 H9         38.3142   33.6981    0.6089 H         1 <0>         0.0600 
     24 H10        38.7421   32.0271    0.2711 H         1 <0>         0.0600 
     25 H11        35.3796   30.5213    1.1456 H         1 <0>         0.0600 
     26 H12        36.7142   30.2087    0.1700 H         1 <0>         0.0600 
     27 H13        36.5292   32.9245    3.0200 H         1 <0>         0.0600 
     28 H14        35.9142   34.1127    1.9035 H         1 <0>         0.0600 
     29 H15        36.1067   33.7842   -0.3035 H         1 <0>         0.2900 
     30 H16        36.8767   30.4523   -4.1160 H         1 <0>         0.4180 
     31 H17        33.8924   35.0008   -2.6320 H         1 <0>         0.4180 
     32 H18        38.5531   33.2903    2.7744 H         1 <0>         0.4180 
     33 H19        36.4566   29.7831    2.7370 H         1 <0>         0.4180 
     34 H20        34.7142   31.6785    2.7519 H         1 <0>         0.4180 
@<TRIPOS>BOND
     1    1    3 1    
     2    1    9 1    
     3    1   15 1    
     4    1   16 1    
     5    2    4 1    
     6    2    9 1    
     7    2   17 1    
     8    2   18 1    
     9    3   10 1    
    10    3   19 1    
    11    3   20 1    
    12    4   11 1    
    13    4   21 1    
    14    4   22 1    
    15    5    8 1    
    16    5   12 1    
    17    5   23 1    
    18    5   24 1    
    19    6    8 1    
    20    6   13 1    
    21    6   25 1    
    22    6   26 1    
    23    7    8 1    
    24    7   14 1    
    25    7   27 1    
    26    7   28 1    
    27    8    9 1    
    28    9   29 1    
    29   10   30 1    
    30   11   31 1    
    31   12   32 1    
    32   13   33 1    
    33   14   34 1    
@<TRIPOS>SUBSTRUCTURE
     1 <0>         1 GROUP             0       ****    0 ROOT    
@<TRIPOS>MOLECULE
glcm-ligand
34   33    1
SMALL
USER_CHARGES


@<TRIPOS>ATOM
      1 C1         36.7175   32.0749   -1.5176 C.3       1 <0>         0.1500 
      2 C2         34.5799   32.9537   -0.5486 C.3       1 <0>         0.1500 
      3 C3         35.9546   31.0557   -2.4026 C.3       1 <0>         0.1450 
      4 C4         34.4925   34.0993   -1.5957 C.3       1 <0>         0.1450 
      5 C5         37.8862   32.3839    1.2756 C.3       1 <0>         0.1450 
      6 C6         36.3160   30.3803    0.9693 C.3       1 <0>         0.1450 
      7 C7         35.5178   32.3768    2.2232 C.3       1 <0>         0.1450 
      8 C8         36.4097   31.9306    1.0298 C.3       1 <0>         0.2700 
      9 N1         35.9996   32.5724   -0.2862 N.4       1 <0>        -0.1000 
     10 O1         36.8266   30.5761   -3.4071 O.3       1 <0>        -0.6830 
     11 O2         33.9044   33.6635   -2.8029 O.3       1 <0>        -0.6830 
     12 O3         38.3284   32.1743    2.5915 O.3       1 <0>        -0.6830 
     13 O4         37.1104   29.7121    1.9478 O.3       1 <0>        -0.6830 
     14 O5         35.5132   33.7750    2.3997 O.3       1 <0>        -0.6830 
     15 H1         36.9584   32.9395   -2.1348 H         1 <0>         0.0600 
     16 H2         37.6913   31.6677   -1.2588 H         1 <0>         0.0600 
     17 H3         33.9875   32.0875   -0.8315 H         1 <0>         0.0600 
     18 H4         34.0978   33.3419    0.3479 H         1 <0>         0.0600 
     19 H5         35.5318   30.2224   -1.8381 H         1 <0>         0.0600 
     20 H6         35.1248   31.5223   -2.9208 H         1 <0>         0.0600 
     21 H7         33.9128   34.9256   -1.2046 H         1 <0>         0.0600 
     22 H8         35.4680   34.5384   -1.8103 H         1 <0>         0.0600 
     23 H9         38.0171   33.4483    1.0559 H         1 <0>         0.0600 
     24 H10        38.5880   31.8423    0.6413 H         1 <0>         0.0600 
     25 H11        35.2881   30.0304    0.9930 H         1 <0>         0.0600 
     26 H12        36.7038   30.0652    0.0191 H         1 <0>         0.0600 
     27 H13        34.4801   32.0427    2.1037 H         1 <0>         0.0600 
     28 H14        35.8509   31.9231    3.1568 H         1 <0>         0.0600 
     29 H15        36.4076   33.4819   -0.1338 H         1 <0>         0.2900 
     30 H16        36.9559   29.6387   -3.2699 H         1 <0>         0.4180 
     31 H17        34.4301   33.9877   -3.5308 H         1 <0>         0.4180 
     32 H18        38.3081   33.0257    3.0561 H         1 <0>         0.4180 
     33 H19        36.5490   29.5323    2.7015 H         1 <0>         0.4180 
     34 H20        36.3806   34.0859    2.6540 H         1 <0>         0.4180 
@<TRIPOS>BOND
     1    1    3 1    
     2    1    9 1    
     3    1   15 1    
     4    1   16 1    
     5    2    4 1    
     6    2    9 1    
     7    2   17 1    
     8    2   18 1    
     9    3   10 1    
    10    3   19 1    
    11    3   20 1    
    12    4   11 1    
    13    4   21 1    
    14    4   22 1    
    15    5    8 1    
    16    5   12 1    
    17    5   23 1    
    18    5   24 1    
    19    6    8 1    
    20    6   13 1    
    21    6   25 1    
    22    6   26 1    
    23    7    8 1    
    24    7   14 1    
    25    7   27 1    
    26    7   28 1    
    27    8    9 1    
    28    9   29 1    
    29   10   30 1    
    30   11   31 1    
    31   12   32 1    
    32   13   33 1    
    33   14   34 1    
@<TRIPOS>SUBSTRUCTURE
     1 <0>         1 GROUP             0       ****    0 ROOT    
@<TRIPOS>MOLECULE
glcm-ligand
34   33    1
SMALL
USER_CHARGES


@<TRIPOS>ATOM
      1 C1         36.6507   32.6426   -1.7533 C.3       1 <0>         0.1500 
      2 C2         34.4002   33.0517   -0.6801 C.3       1 <0>         0.1500 
      3 C3         36.7142   31.2395   -2.4007 C.3       1 <0>         0.1450 
      4 C4         33.6209   32.0111   -1.4939 C.3       1 <0>         0.1450 
      5 C5         37.8994   32.4196    0.9219 C.3       1 <0>         0.1450 
      6 C6         36.0445   30.6214    0.7778 C.3       1 <0>         0.1450 
      7 C7         35.6275   32.7516    2.0359 C.3       1 <0>         0.1450 
      8 C8         36.3584   32.1433    0.7962 C.3       1 <0>         0.2700 
      9 N1         35.8662   32.8009   -0.4806 N.4       1 <0>        -0.1000 
     10 O1         37.1142   31.3566   -3.7502 O.3       1 <0>        -0.6830 
     11 O2         33.7734   32.2007   -2.8848 O.3       1 <0>        -0.6830 
     12 O3         38.4811   32.1753    2.1923 O.3       1 <0>        -0.6830 
     13 O4         36.7142   29.9055    1.7923 O.3       1 <0>        -0.6830 
     14 O5         35.5142   34.1591    1.9511 O.3       1 <0>        -0.6830 
     15 H1         36.2319   33.3458   -2.4752 H         1 <0>         0.0600 
     16 H2         37.6735   32.9753   -1.6089 H         1 <0>         0.0600 
     17 H3         33.8739   33.1782    0.2620 H         1 <0>         0.0600 
     18 H4         34.2970   34.0204   -1.1708 H         1 <0>         0.0600 
     19 H5         37.4519   30.6138   -1.9041 H         1 <0>         0.0600 
     20 H6         35.7699   30.7032   -2.3733 H         1 <0>         0.0600 
     21 H7         33.8563   30.9894   -1.1972 H         1 <0>         0.0600 
     22 H8         32.5653   32.1753   -1.3001 H         1 <0>         0.0600 
     23 H9         38.1150   33.4641    0.6908 H         1 <0>         0.0600 
     24 H10        38.4547   31.8180    0.2021 H         1 <0>         0.0600 
     25 H11        34.9740   30.4457    0.8816 H         1 <0>         0.0600 
     26 H12        36.3142   30.1510   -0.1543 H         1 <0>         0.0600 
     27 H13        34.6193   32.3466    2.1326 H         1 <0>         0.0600 
     28 H14        36.1115   32.4833    2.9756 H         1 <0>         0.0600 
     29 H15        36.1320   33.7426   -0.2249 H         1 <0>         0.2900 
     30 H16        36.8215   30.5888   -4.2217 H         1 <0>         0.4180 
     31 H17        33.3046   31.5120   -3.3321 H         1 <0>         0.4180 
     32 H18        38.3142   32.9296    2.7582 H         1 <0>         0.4180 
     33 H19        36.0804   29.7753    2.5063 H         1 <0>         0.4180 
     34 H20        36.3507   34.5753    2.1923 H         1 <0>         0.4180 
@<TRIPOS>BOND
     1    1    3 1    
     2    1    9 1    
     3    1   15 1    
     4    1   16 1    
     5    2    4 1    
     6    2    9 1    
     7    2   17 1    
     8    2   18 1    
     9    3   10 1    
    10    3   19 1    
    11    3   20 1    
    12    4   11 1    
    13    4   21 1    
    14    4   22 1    
    15    5    8 1    
    16    5   12 1    
    17    5   23 1    
    18    5   24 1    
    19    6    8 1    
    20    6   13 1    
    21    6   25 1    
    22    6   26 1    
    23    7    8 1    
    24    7   14 1    
    25    7   27 1    
    26    7   28 1    
    27    8    9 1    
    28    9   29 1    
    29   10   30 1    
    30   11   31 1    
    31   12   32 1    
    32   13   33 1    
    33   14   34 1    
@<TRIPOS>SUBSTRUCTURE
     1 <0>         1 GROUP             0       ****    0 ROOT    
@<TRIPOS>MOLECULE
glcm-ligand
34   33    1
SMALL
USER_CHARGES


@<TRIPOS>ATOM
      1 C1         36.9297   32.5593   -1.8546 C.3       1 <0>         0.1500 
      2 C2         34.6610   33.1632   -0.9915 C.3       1 <0>         0.1500 
      3 C3         36.4676   32.9753   -3.2755 C.3       1 <0>         0.1450 
      4 C4         34.0036   31.8658   -1.4900 C.3       1 <0>         0.1450 
      5 C5         38.0102   32.7245    0.8977 C.3       1 <0>         0.1450 
      6 C6         36.2295   30.8689    0.6611 C.3       1 <0>         0.1450 
      7 C7         35.6911   33.0899    1.8397 C.3       1 <0>         0.1450 
      8 C8         36.4861   32.4122    0.6701 C.3       1 <0>         0.2700 
      9 N1         36.1112   33.0204   -0.6764 N.4       1 <0>        -0.1000 
     10 O1         37.4525   32.5753   -4.2077 O.3       1 <0>        -0.6830 
     11 O2         33.1142   32.1753   -2.5372 O.3       1 <0>        -0.6830 
     12 O3         38.5331   32.4714    2.1923 O.3       1 <0>        -0.6830 
     13 O4         36.7142   30.1966    1.7923 O.3       1 <0>        -0.6830 
     14 O5         34.3839   32.5753    2.0364 O.3       1 <0>        -0.6830 
     15 H1         37.9142   32.9753   -1.7204 H         1 <0>         0.0600 
     16 H2         37.0544   31.4808   -1.8730 H         1 <0>         0.0600 
     17 H3         34.0846   33.5973   -0.1780 H         1 <0>         0.0600 
     18 H4         34.5840   33.9294   -1.7640 H         1 <0>         0.0600 
     19 H5         35.5383   32.4929   -3.5708 H         1 <0>         0.0600 
     20 H6         36.3142   34.0501   -3.3666 H         1 <0>         0.0600 
     21 H7         34.7177   31.1400   -1.8765 H         1 <0>         0.0600 
     22 H8         33.4951   31.3753   -0.6683 H         1 <0>         0.0600 
     23 H9         38.2131   33.7753    0.6861 H         1 <0>         0.0600 
     24 H10        38.6270   32.1422    0.2134 H         1 <0>         0.0600 
     25 H11        35.1744   30.6192    0.5772 H         1 <0>         0.0600 
     26 H12        36.7125   30.3840   -0.1758 H         1 <0>         0.0600 
     27 H13        36.1883   32.9422    2.7981 H         1 <0>         0.0600 
     28 H14        35.6398   34.1704    1.6997 H         1 <0>         0.0600 
     29 H15        36.4024   33.9807   -0.5569 H         1 <0>         0.2900 
     30 H16        37.1636   32.8159   -5.0766 H         1 <0>         0.4180 
     31 H17        32.2528   32.3033   -2.1598 H         1 <0>         0.4180 
     32 H18        38.3142   33.2075    2.7782 H         1 <0>         0.4180 
     33 H19        35.9933   30.0534    2.4129 H         1 <0>         0.4180 
     34 H20        34.4420   31.7190    2.4592 H         1 <0>         0.4180 
@<TRIPOS>BOND
     1    1    3 1    
     2    1    9 1    
     3    1   15 1    
     4    1   16 1    
     5    2    4 1    
     6    2    9 1    
     7    2   17 1    
     8    2   18 1    
     9    3   10 1    
    10    3   19 1    
    11    3   20 1    
    12    4   11 1    
    13    4   21 1    
    14    4   22 1    
    15    5    8 1    
    16    5   12 1    
    17    5   23 1    
    18    5   24 1    
    19    6    8 1    
    20    6   13 1    
    21    6   25 1    
    22    6   26 1    
    23    7    8 1    
    24    7   14 1    
    25    7   27 1    
    26    7   28 1    
    27    8    9 1    
    28    9   29 1    
    29   10   30 1    
    30   11   31 1    
    31   12   32 1    
    32   13   33 1    
    33   14   34 1    
@<TRIPOS>SUBSTRUCTURE
     1 <0>         1 GROUP             0       ****    0 ROOT    
@<TRIPOS>MOLECULE
glcm-ligand
34   33    1
SMALL
USER_CHARGES


@<TRIPOS>ATOM
      1 C1         36.2450   31.1904   -2.1868 C.3       1 <0>         0.1500 
      2 C2         34.1697   32.3532   -1.4620 C.3       1 <0>         0.1500 
      3 C3         36.7143   31.8053   -3.5204 C.3       1 <0>         0.1450 
      4 C4         33.8503   33.0078   -2.8249 C.3       1 <0>         0.1450 
      5 C5         35.9740   30.4471    0.6444 C.3       1 <0>         0.1450 
      6 C6         35.1699   32.7619    1.2350 C.3       1 <0>         0.1450 
      7 C7         37.5328   32.5502    0.2945 C.3       1 <0>         0.1450 
      8 C8         36.0764   31.9609    0.2402 C.3       1 <0>         0.2700 
      9 N1         35.6357   32.1582   -1.2103 N.4       1 <0>        -0.1000 
     10 O1         37.5142   30.8695   -4.2076 O.3       1 <0>        -0.6830 
     11 O2         33.2828   32.0944   -3.7451 O.3       1 <0>        -0.6830 
     12 O3         36.7142   30.0650    1.7922 O.3       1 <0>        -0.6830 
     13 O4         35.5142   32.5990    2.5923 O.3       1 <0>        -0.6830 
     14 O5         38.1952   32.5388    1.5433 O.3       1 <0>        -0.6830 
     15 H1         37.1475   30.7535   -1.7697 H         1 <0>         0.0600 
     16 H2         35.5678   30.3522   -2.3631 H         1 <0>         0.0600 
     17 H3         33.6210   31.4202   -1.3192 H         1 <0>         0.0600 
     18 H4         33.7460   33.0600   -0.7547 H         1 <0>         0.0600 
     19 H5         35.9006   32.0615   -4.1928 H         1 <0>         0.0600 
     20 H6         37.3056   32.7050   -3.3475 H         1 <0>         0.0600 
     21 H7         33.1142   33.7862   -2.6858 H         1 <0>         0.0600 
     22 H8         34.6962   33.5487   -3.2453 H         1 <0>         0.0600 
     23 H9         36.3124   29.7753   -0.1259 H         1 <0>         0.0600 
     24 H10        34.9304   30.1753    0.7992 H         1 <0>         0.0600 
     25 H11        35.1850   33.8282    1.0070 H         1 <0>         0.0600 
     26 H12        34.1338   32.4253    1.1970 H         1 <0>         0.0600 
     27 H13        38.2012   32.0369   -0.3940 H         1 <0>         0.0600 
     28 H14        37.5142   33.5919   -0.0292 H         1 <0>         0.0600 
     29 H15        36.0431   33.0540   -1.4376 H         1 <0>         0.2900 
     30 H16        36.9793   30.1425   -4.4961 H         1 <0>         0.4180 
     31 H17        33.9154   31.4302   -3.9717 H         1 <0>         0.4180 
     32 H18        36.0833   29.7755    2.4589 H         1 <0>         0.4180 
     33 H19        35.3486   31.6944    2.8494 H         1 <0>         0.4180 
     34 H20        37.7356   33.1114    2.1525 H         1 <0>         0.4180 
@<TRIPOS>BOND
     1    1    3 1    
     2    1    9 1    
     3    1   15 1    
     4    1   16 1    
     5    2    4 1    
     6    2    9 1    
     7    2   17 1    
     8    2   18 1    
     9    3   10 1    
    10    3   19 1    
    11    3   20 1    
    12    4   11 1    
    13    4   21 1    
    14    4   22 1    
    15    5    8 1    
    16    5   12 1    
    17    5   23 1    
    18    5   24 1    
    19    6    8 1    
    20    6   13 1    
    21    6   25 1    
    22    6   26 1    
    23    7    8 1    
    24    7   14 1    
    25    7   27 1    
    26    7   28 1    
    27    8    9 1    
    28    9   29 1    
    29   10   30 1    
    30   11   31 1    
    31   12   32 1    
    32   13   33 1    
    33   14   34 1    
@<TRIPOS>SUBSTRUCTURE
     1 <0>         1 GROUP             0       ****    0 ROOT    
@<TRIPOS>MOLECULE
glcm-ligand
34   33    1
SMALL
USER_CHARGES


@<TRIPOS>ATOM
      1 C1         37.0545   32.1775   -1.3571 C.3       1 <0>         0.1500 
      2 C2         34.8123   32.6526   -0.5186 C.3       1 <0>         0.1500 
      3 C3         36.2966   31.2080   -2.2783 C.3       1 <0>         0.1450 
      4 C4         34.5275   33.2949   -1.8870 C.3       1 <0>         0.1450 
      5 C5         36.5684   30.8037    1.3717 C.3       1 <0>         0.1450 
      6 C6         35.8421   33.0811    2.2854 C.3       1 <0>         0.1450 
      7 C7         38.2344   32.6902    1.4706 C.3       1 <0>         0.1450 
      8 C8         36.7205   32.3477    1.2199 C.3       1 <0>         0.2700 
      9 N1         36.2743   32.7207   -0.1921 N.4       1 <0>        -0.1000 
     10 O1         37.1144   30.8538   -3.3725 O.3       1 <0>        -0.6830 
     11 O2         33.5116   32.5603   -2.5343 O.3       1 <0>        -0.6830 
     12 O3         37.1625   30.3468    2.5728 O.3       1 <0>        -0.6830 
     13 O4         34.4663   32.7673    2.2165 O.3       1 <0>        -0.6830 
     14 O5         39.1682   31.8871    0.7724 O.3       1 <0>        -0.6830 
     15 H1         37.5275   32.9746   -1.9297 H         1 <0>         0.0600 
     16 H2         37.8995   31.6024   -0.9771 H         1 <0>         0.0600 
     17 H3         34.4906   31.6098   -0.5222 H         1 <0>         0.0600 
     18 H4         34.1346   33.1308    0.1795 H         1 <0>         0.0600 
     19 H5         35.9271   30.3286   -1.7565 H         1 <0>         0.0600 
     20 H6         35.4093   31.7067   -2.6700 H         1 <0>         0.0600 
     21 H7         34.2258   34.3391   -1.8041 H         1 <0>         0.0600 
     22 H8         35.4239   33.2690   -2.5077 H         1 <0>         0.0600 
     23 H9         37.0004   30.2539    0.5427 H         1 <0>         0.0600 
     24 H10        35.5209   30.5020    1.3719 H         1 <0>         0.0600 
     25 H11        36.1968   32.8543    3.2916 H         1 <0>         0.0600 
     26 H12        35.8832   34.1623    2.1645 H         1 <0>         0.0600 
     27 H13        38.4483   33.7172    1.1703 H         1 <0>         0.0600 
     28 H14        38.4846   32.5913    2.5273 H         1 <0>         0.0600 
     29 H15        36.4497   33.7193   -0.2012 H         1 <0>         0.2900 
     30 H16        36.5783   30.7919   -4.1506 H         1 <0>         0.4180 
     31 H17        32.8563   32.3125   -1.8974 H         1 <0>         0.4180 
     32 H18        36.4953   29.9370    3.1047 H         1 <0>         0.4180 
     33 H19        34.3152   31.9280    2.6255 H         1 <0>         0.4180 
     34 H20        39.1855   32.1514   -0.1354 H         1 <0>         0.4180 
@<TRIPOS>BOND
     1    1    3 1    
     2    1    9 1    
     3    1   15 1    
     4    1   16 1    
     5    2    4 1    
     6    2    9 1    
     7    2   17 1    
     8    2   18 1    
     9    3   10 1    
    10    3   19 1    
    11    3   20 1    
    12    4   11 1    
    13    4   21 1    
    14    4   22 1    
    15    5    8 1    
    16    5   12 1    
    17    5   23 1    
    18    5   24 1    
    19    6    8 1    
    20    6   13 1    
    21    6   25 1    
    22    6   26 1    
    23    7    8 1    
    24    7   14 1    
    25    7   27 1    
    26    7   28 1    
    27    8    9 1    
    28    9   29 1    
    29   10   30 1    
    30   11   31 1    
    31   12   32 1    
    32   13   33 1    
    33   14   34 1    
@<TRIPOS>SUBSTRUCTURE
     1 <0>         1 GROUP             0       ****    0 ROOT    
@<TRIPOS>MOLECULE
glcm-ligand
34   33    1
SMALL
USER_CHARGES


@<TRIPOS>ATOM
      1 C1         36.7831   32.2924   -1.5739 C.3       1 <0>         0.1500 
      2 C2         34.5962   32.6134   -0.4307 C.3       1 <0>         0.1500 
      3 C3         36.3309   30.9294   -2.1410 C.3       1 <0>         0.1450 
      4 C4         34.0224   33.1927   -1.7430 C.3       1 <0>         0.1450 
      5 C5         38.2292   32.7353    0.9941 C.3       1 <0>         0.1450 
      6 C6         36.5827   30.7989    1.3084 C.3       1 <0>         0.1450 
      7 C7         36.0225   33.0934    2.1957 C.3       1 <0>         0.1450 
      8 C8         36.7132   32.3237    1.0247 C.3       1 <0>         0.2700 
      9 N1         36.0860   32.7210   -0.3127 N.4       1 <0>        -0.1000 
     10 O1         37.1142   30.5753   -3.2606 O.3       1 <0>        -0.6830 
     11 O2         34.3142   34.5753   -1.8077 O.3       1 <0>        -0.6830 
     12 O3         38.9596   32.5753    2.1923 O.3       1 <0>        -0.6830 
     13 O4         37.1142   30.3873    2.5529 O.3       1 <0>        -0.6830 
     14 O5         34.7550   32.5753    2.5649 O.3       1 <0>        -0.6830 
     15 H1         36.5995   33.0501   -2.3343 H         1 <0>         0.0600 
     16 H2         37.8623   32.3122   -1.4899 H         1 <0>         0.0600 
     17 H3         34.2828   31.5749   -0.3212 H         1 <0>         0.0600 
     18 H4         34.1015   33.1733    0.3580 H         1 <0>         0.0600 
     19 H5         36.4038   30.1753   -1.3757 H         1 <0>         0.0600 
     20 H6         35.2920   30.8912   -2.4558 H         1 <0>         0.0600 
     21 H7         34.3947   32.7431   -2.6581 H         1 <0>         0.0600 
     22 H8         32.9563   32.9753   -1.7624 H         1 <0>         0.0600 
     23 H9         38.3288   33.7753    0.6820 H         1 <0>         0.0600 
     24 H10        38.7968   32.1247    0.2961 H         1 <0>         0.0600 
     25 H11        35.5470   30.4746    1.2369 H         1 <0>         0.0600 
     26 H12        37.1142   30.2111    0.5922 H         1 <0>         0.0600 
     27 H13        36.6250   33.0283    3.1007 H         1 <0>         0.0600 
     28 H14        35.9142   34.1532    1.9631 H         1 <0>         0.0600 
     29 H15        36.2299   33.7219   -0.3178 H         1 <0>         0.2900 
     30 H16        36.8890   29.6882   -3.5106 H         1 <0>         0.4180 
     31 H17        33.9094   34.9531   -2.5795 H         1 <0>         0.4180 
     32 H18        38.7013   33.2715    2.8088 H         1 <0>         0.4180 
     33 H19        36.4440   29.8641    2.9923 H         1 <0>         0.4180 
     34 H20        34.8398   31.6766    2.8893 H         1 <0>         0.4180 
@<TRIPOS>BOND
     1    1    3 1    
     2    1    9 1    
     3    1   15 1    
     4    1   16 1    
     5    2    4 1    
     6    2    9 1    
     7    2   17 1    
     8    2   18 1    
     9    3   10 1    
    10    3   19 1    
    11    3   20 1    
    12    4   11 1    
    13    4   21 1    
    14    4   22 1    
    15    5    8 1    
    16    5   12 1    
    17    5   23 1    
    18    5   24 1    
    19    6    8 1    
    20    6   13 1    
    21    6   25 1    
    22    6   26 1    
    23    7    8 1    
    24    7   14 1    
    25    7   27 1    
    26    7   28 1    
    27    8    9 1    
    28    9   29 1    
    29   10   30 1    
    30   11   31 1    
    31   12   32 1    
    32   13   33 1    
    33   14   34 1    
@<TRIPOS>SUBSTRUCTURE
     1 <0>         1 GROUP             0       ****    0 ROOT    
@<TRIPOS>MOLECULE
glcm-ligand
34   33    1
SMALL
USER_CHARGES


@<TRIPOS>ATOM
      1 C1         36.9026   32.1687   -1.7411 C.3       1 <0>         0.1500 
      2 C2         34.6983   32.9506   -0.8412 C.3       1 <0>         0.1500 
      3 C3         36.2016   31.0366   -2.5274 C.3       1 <0>         0.1450 
      4 C4         34.3886   33.8293   -2.0873 C.3       1 <0>         0.1450 
      5 C5         36.4122   30.7682    0.9476 C.3       1 <0>         0.1450 
      6 C6         35.8580   33.0619    1.9429 C.3       1 <0>         0.1450 
      7 C7         38.1370   32.7299    0.9308 C.3       1 <0>         0.1450 
      8 C8         36.6200   32.3122    0.7989 C.3       1 <0>         0.2700 
      9 N1         36.1654   32.7774   -0.5801 N.4       1 <0>        -0.1000 
     10 O1         37.1139   30.5756   -3.5009 O.3       1 <0>        -0.6830 
     11 O2         33.5143   33.1824   -2.9965 O.3       1 <0>        -0.6830 
     12 O3         37.1145   30.1861    2.0372 O.3       1 <0>        -0.6830 
     13 O4         34.5511   32.5753    2.1923 O.3       1 <0>        -0.6830 
     14 O5         38.7477   32.5746    2.1923 O.3       1 <0>        -0.6830 
     15 H1         37.1463   32.9634   -2.4424 H         1 <0>         0.0600 
     16 H2         37.8628   31.7803   -1.4325 H         1 <0>         0.0600 
     17 H3         34.2105   31.9760   -0.8999 H         1 <0>         0.0600 
     18 H4         34.2120   33.4669   -0.0190 H         1 <0>         0.0600 
     19 H5         35.8962   30.1972   -1.9040 H         1 <0>         0.0600 
     20 H6         35.3126   31.3770   -3.0499 H         1 <0>         0.0600 
     21 H7         33.9149   34.7603   -1.7742 H         1 <0>         0.0600 
     22 H8         35.2814   34.1382   -2.6290 H         1 <0>         0.0600 
     23 H9         36.7142   30.2300    0.0644 H         1 <0>         0.0600 
     24 H10        35.3534   30.5162    0.9961 H         1 <0>         0.0600 
     25 H11        36.3783   32.9589    2.8951 H         1 <0>         0.0600 
     26 H12        35.8135   34.1330    1.7424 H         1 <0>         0.0600 
     27 H13        38.7957   32.1519    0.2895 H         1 <0>         0.0600 
     28 H14        38.2634   33.7759    0.6489 H         1 <0>         0.0600 
     29 H15        36.5024   33.7301   -0.5676 H         1 <0>         0.2900 
     30 H16        36.7554   29.7966   -3.9055 H         1 <0>         0.4180 
     31 H17        33.9981   32.5522   -3.5077 H         1 <0>         0.4180 
     32 H18        36.4655   29.8380    2.6474 H         1 <0>         0.4180 
     33 H19        34.6096   31.7035    2.5871 H         1 <0>         0.4180 
     34 H20        38.4615   33.2821    2.7852 H         1 <0>         0.4180 
@<TRIPOS>BOND
     1    1    3 1    
     2    1    9 1    
     3    1   15 1    
     4    1   16 1    
     5    2    4 1    
     6    2    9 1    
     7    2   17 1    
     8    2   18 1    
     9    3   10 1    
    10    3   19 1    
    11    3   20 1    
    12    4   11 1    
    13    4   21 1    
    14    4   22 1    
    15    5    8 1    
    16    5   12 1    
    17    5   23 1    
    18    5   24 1    
    19    6    8 1    
    20    6   13 1    
    21    6   25 1    
    22    6   26 1    
    23    7    8 1    
    24    7   14 1    
    25    7   27 1    
    26    7   28 1    
    27    8    9 1    
    28    9   29 1    
    29   10   30 1    
    30   11   31 1    
    31   12   32 1    
    32   13   33 1    
    33   14   34 1    
@<TRIPOS>SUBSTRUCTURE
     1 <0>         1 GROUP             0       ****    0 ROOT    
@<TRIPOS>MOLECULE
glcm-ligand
34   33    1
SMALL
USER_CHARGES


@<TRIPOS>ATOM
      1 C1         33.9513   31.6457   -2.3595 C.3       1 <0>         0.1500 
      2 C2         34.3383   34.0400   -2.0874 C.3       1 <0>         0.1500 
      3 C3         33.8400   31.7839   -3.8865 C.3       1 <0>         0.1450 
      4 C4         35.3800   34.7134   -2.9972 C.3       1 <0>         0.1450 
      5 C5         36.5459   33.1316    0.0500 C.3       1 <0>         0.1450 
      6 C6         35.2516   30.9250    0.1166 C.3       1 <0>         0.1450 
      7 C7         34.1332   33.1292    0.7732 C.3       1 <0>         0.1450 
      8 C8         35.1651   32.4534   -0.2018 C.3       1 <0>         0.2700 
      9 N1         34.7999   32.6763   -1.6677 N.4       1 <0>        -0.1000 
     10 O1         32.8149   32.6990   -4.2080 O.3       1 <0>        -0.6830 
     11 O2         34.7278   35.2223   -4.1401 O.3       1 <0>        -0.6830 
     12 O3         37.6053   32.3360   -0.4491 O.3       1 <0>        -0.6830 
     13 O4         36.3036   30.5749    0.9922 O.3       1 <0>        -0.6830 
     14 O5         34.3780   32.9365    2.1542 O.3       1 <0>        -0.6830 
     15 H1         34.2390   30.6337   -2.0766 H         1 <0>         0.0600 
     16 H2         32.9274   31.7299   -1.9938 H         1 <0>         0.0600 
     17 H3         33.3854   33.9537   -2.6123 H         1 <0>         0.0600 
     18 H4         34.1345   34.7506   -1.2945 H         1 <0>         0.0600 
     19 H5         34.7807   32.0585   -4.3571 H         1 <0>         0.0600 
     20 H6         33.5730   30.8169   -4.3146 H         1 <0>         0.0600 
     21 H7         35.9159   35.5186   -2.4945 H         1 <0>         0.0600 
     22 H8         36.1251   33.9846   -3.3183 H         1 <0>         0.0600 
     23 H9         36.7315   33.3337    1.0993 H         1 <0>         0.0600 
     24 H10        36.6031   34.1124   -0.4223 H         1 <0>         0.0600 
     25 H11        34.3136   30.5729    0.5475 H         1 <0>         0.0600 
     26 H12        35.4351   30.3374   -0.7814 H         1 <0>         0.0600 
     27 H13        34.1201   34.2103    0.6256 H         1 <0>         0.0600 
     28 H14        33.1255   32.7543    0.5920 H         1 <0>         0.0600 
     29 H15        35.7082   32.6109   -2.1134 H         1 <0>         0.2900 
     30 H16        33.1148   33.5769   -4.0185 H         1 <0>         0.4180 
     31 H17        34.0158   35.7826   -3.8654 H         1 <0>         0.4180 
     32 H18        38.4071   32.8373   -0.4074 H         1 <0>         0.4180 
     33 H19        35.9515   30.4067    1.8539 H         1 <0>         0.4180 
     34 H20        34.3868   32.0093    2.3402 H         1 <0>         0.4180 
@<TRIPOS>BOND
     1    1    3 1    
     2    1    9 1    
     3    1   15 1    
     4    1   16 1    
     5    2    4 1    
     6    2    9 1    
     7    2   17 1    
     8    2   18 1    
     9    3   10 1    
    10    3   19 1    
    11    3   20 1    
    12    4   11 1    
    13    4   21 1    
    14    4   22 1    
    15    5    8 1    
    16    5   12 1    
    17    5   23 1    
    18    5   24 1    
    19    6    8 1    
    20    6   13 1    
    21    6   25 1    
    22    6   26 1    
    23    7    8 1    
    24    7   14 1    
    25    7   27 1    
    26    7   28 1    
    27    8    9 1    
    28    9   29 1    
    29   10   30 1    
    30   11   31 1    
    31   12   32 1    
    32   13   33 1    
    33   14   34 1    
@<TRIPOS>SUBSTRUCTURE
     1 <0>         1 GROUP             0       ****    0 ROOT    
@<TRIPOS>MOLECULE
glcm-ligand
34   33    1
SMALL
USER_CHARGES


@<TRIPOS>ATOM
      1 C1         35.9141   33.7281   -1.2956 C.3       1 <0>         0.1500 
      2 C2         34.8416   31.4826   -1.2362 C.3       1 <0>         0.1500 
      3 C3         34.8096   34.3279   -2.2077 C.3       1 <0>         0.1450 
      4 C4         35.7225   30.9552   -2.3935 C.3       1 <0>         0.1450 
      5 C5         36.3648   30.6918    1.0376 C.3       1 <0>         0.1450 
      6 C6         35.7019   32.9525    1.9902 C.3       1 <0>         0.1450 
      7 C7         37.8267   32.7336    0.6220 C.3       1 <0>         0.1450 
      8 C8         36.3431   32.2337    0.7747 C.3       1 <0>         0.2700 
      9 N1         35.4634   32.5906   -0.4284 N.4       1 <0>        -0.1000 
     10 O1         35.3227   35.3753   -3.0077 O.3       1 <0>        -0.6830 
     11 O2         35.1142   29.8409   -3.0077 O.3       1 <0>        -0.6830 
     12 O3         37.1142   30.2367    2.1546 O.3       1 <0>        -0.6830 
     13 O4         34.3459   32.5753    2.1457 O.3       1 <0>        -0.6830 
     14 O5         38.6314   32.5753    1.7826 O.3       1 <0>        -0.6830 
     15 H1         36.3142   34.5376   -0.6941 H         1 <0>         0.0600 
     16 H2         36.7396   33.3753   -1.9092 H         1 <0>         0.0600 
     17 H3         34.4771   30.6598   -0.6301 H         1 <0>         0.0600 
     18 H4         33.9110   31.8572   -1.6616 H         1 <0>         0.0600 
     19 H5         34.4082   33.5902   -2.9008 H         1 <0>         0.0600 
     20 H6         33.9719   34.7069   -1.6220 H         1 <0>         0.0600 
     21 H7         35.8574   31.7114   -3.1663 H         1 <0>         0.0600 
     22 H8         36.7163   30.6687   -2.0527 H         1 <0>         0.0600 
     23 H9         36.7142   30.1753    0.1564 H         1 <0>         0.0600 
     24 H10        35.3632   30.3173    1.1867 H         1 <0>         0.0600 
     25 H11        36.2312   32.7310    2.9185 H         1 <0>         0.0600 
     26 H12        35.7458   34.0348    1.8609 H         1 <0>         0.0600 
     27 H13        38.3146   32.2202   -0.2071 H         1 <0>         0.0600 
     28 H14        37.8951   33.7995    0.4218 H         1 <0>         0.0600 
     29 H15        34.6614   32.9502    0.0772 H         1 <0>         0.2900 
     30 H16        35.1032   36.2170   -2.6165 H         1 <0>         0.4180 
     31 H17        35.4414   29.0568   -2.5840 H         1 <0>         0.4180 
     32 H18        36.4912   29.8859    2.7897 H         1 <0>         0.4180 
     33 H19        34.3144   31.7135    2.5646 H         1 <0>         0.4180 
     34 H20        38.3725   33.2279    2.4343 H         1 <0>         0.4180 
@<TRIPOS>BOND
     1    1    3 1    
     2    1    9 1    
     3    1   15 1    
     4    1   16 1    
     5    2    4 1    
     6    2    9 1    
     7    2   17 1    
     8    2   18 1    
     9    3   10 1    
    10    3   19 1    
    11    3   20 1    
    12    4   11 1    
    13    4   21 1    
    14    4   22 1    
    15    5    8 1    
    16    5   12 1    
    17    5   23 1    
    18    5   24 1    
    19    6    8 1    
    20    6   13 1    
    21    6   25 1    
    22    6   26 1    
    23    7    8 1    
    24    7   14 1    
    25    7   27 1    
    26    7   28 1    
    27    8    9 1    
    28    9   29 1    
    29   10   30 1    
    30   11   31 1    
    31   12   32 1    
    32   13   33 1    
    33   14   34 1    
@<TRIPOS>SUBSTRUCTURE
     1 <0>         1 GROUP             0       ****    0 ROOT    
@<TRIPOS>MOLECULE
glcm-ligand
34   33    1
SMALL
USER_CHARGES


@<TRIPOS>ATOM
      1 C1         36.1485   31.6432   -2.2081 C.3       1 <0>         0.1500 
      2 C2         34.2491   33.1228   -1.5202 C.3       1 <0>         0.1500 
      3 C3         35.1665   30.5589   -2.7150 C.3       1 <0>         0.1450 
      4 C4         34.2457   33.8651   -2.8720 C.3       1 <0>         0.1450 
      5 C5         37.2330   32.8667    0.6625 C.3       1 <0>         0.1450 
      6 C6         35.9080   30.6621    0.5923 C.3       1 <0>         0.1450 
      7 C7         34.7910   32.8370    1.2334 C.3       1 <0>         0.1450 
      8 C8         35.8698   32.2071    0.3008 C.3       1 <0>         0.2700 
      9 N1         35.5910   32.5556   -1.1587 N.4       1 <0>        -0.1000 
     10 O1         35.7973   29.7753   -3.7010 O.3       1 <0>        -0.6830 
     11 O2         35.1142   34.9746   -2.7888 O.3       1 <0>        -0.6830 
     12 O3         38.3142   32.1753    0.0724 O.3       1 <0>        -0.6830 
     13 O4         36.7142   30.2962    1.7108 O.3       1 <0>        -0.6830 
     14 O5         35.0027   32.5753    2.5923 O.3       1 <0>        -0.6830 
     15 H1         36.4481   32.2608   -3.0550 H         1 <0>         0.0600 
     16 H2         37.0841   31.1903   -1.8876 H         1 <0>         0.0600 
     17 H3         33.4905   32.3390   -1.5032 H         1 <0>         0.0600 
     18 H4         33.9142   33.8743   -0.8104 H         1 <0>         0.0600 
     19 H5         34.8173   29.9091   -1.9136 H         1 <0>         0.0600 
     20 H6         34.2804   30.9921   -3.1765 H         1 <0>         0.0600 
     21 H7         34.5271   33.2364   -3.7156 H         1 <0>         0.0600 
     22 H8         33.2410   34.2241   -3.0908 H         1 <0>         0.0600 
     23 H9         37.4039   32.8645    1.7404 H         1 <0>         0.0600 
     24 H10        37.2620   33.9153    0.3618 H         1 <0>         0.0600 
     25 H11        34.8998   30.2718    0.7284 H         1 <0>         0.0600 
     26 H12        36.3142   30.0865   -0.2241 H         1 <0>         0.0600 
     27 H13        34.7865   33.9241    1.1452 H         1 <0>         0.0600 
     28 H14        33.7892   32.4713    1.0021 H         1 <0>         0.0600 
     29 H15        36.1770   33.3737   -1.2651 H         1 <0>         0.2900 
     30 H16        36.3147   29.1105   -3.2620 H         1 <0>         0.4180 
     31 H17        34.6319   35.7640   -3.0077 H         1 <0>         0.4180 
     32 H18        39.1159   32.5069    0.4516 H         1 <0>         0.4180 
     33 H19        36.1159   30.0662    2.4256 H         1 <0>         0.4180 
     34 H20        34.8190   31.6546    2.7812 H         1 <0>         0.4180 
@<TRIPOS>BOND
     1    1    3 1    
     2    1    9 1    
     3    1   15 1    
     4    1   16 1    
     5    2    4 1    
     6    2    9 1    
     7    2   17 1    
     8    2   18 1    
     9    3   10 1    
    10    3   19 1    
    11    3   20 1    
    12    4   11 1    
    13    4   21 1    
    14    4   22 1    
    15    5    8 1    
    16    5   12 1    
    17    5   23 1    
    18    5   24 1    
    19    6    8 1    
    20    6   13 1    
    21    6   25 1    
    22    6   26 1    
    23    7    8 1    
    24    7   14 1    
    25    7   27 1    
    26    7   28 1    
    27    8    9 1    
    28    9   29 1    
    29   10   30 1    
    30   11   31 1    
    31   12   32 1    
    32   13   33 1    
    33   14   34 1    
@<TRIPOS>SUBSTRUCTURE
     1 <0>         1 GROUP             0       ****    0 ROOT    
@<TRIPOS>MOLECULE
glcm-ligand
34   33    1
SMALL
USER_CHARGES


@<TRIPOS>ATOM
      1 C1         36.5903   32.0758   -2.1159 C.3       1 <0>         0.1500 
      2 C2         34.1259   32.1331   -1.6645 C.3       1 <0>         0.1500 
      3 C3         36.3232   30.8807   -3.0731 C.3       1 <0>         0.1450 
      4 C4         33.7701   32.9277   -2.9429 C.3       1 <0>         0.1450 
      5 C5         36.9708   33.0821    0.7986 C.3       1 <0>         0.1450 
      6 C6         36.0418   30.6522    0.5758 C.3       1 <0>         0.1450 
      7 C7         34.5399   32.6000    1.1928 C.3       1 <0>         0.1450 
      8 C8         35.7755   32.1706    0.3316 C.3       1 <0>         0.2700 
      9 N1         35.4979   32.4414   -1.1445 N.4       1 <0>        -0.1000 
     10 O1         37.4927   30.5752   -3.8099 O.3       1 <0>        -0.6830 
     11 O2         32.7152   32.2684   -3.6109 O.3       1 <0>        -0.6830 
     12 O3         38.2653   32.5732    0.5464 O.3       1 <0>        -0.6830 
     13 O4         36.7143   30.3658    1.7920 O.3       1 <0>        -0.6830 
     14 O5         34.7500   32.5754    2.5874 O.3       1 <0>        -0.6830 
     15 H1         36.7964   32.9574   -2.7219 H         1 <0>         0.0600 
     16 H2         37.5167   31.8722   -1.5983 H         1 <0>         0.0600 
     17 H3         34.0301   31.0576   -1.8191 H         1 <0>         0.0600 
     18 H4         33.3325   32.3860   -0.9681 H         1 <0>         0.0600 
     19 H5         35.9949   29.9969   -2.5341 H         1 <0>         0.0600 
     20 H6         35.5435   31.0902   -3.8018 H         1 <0>         0.0600 
     21 H7         33.4752   33.9458   -2.6917 H         1 <0>         0.0600 
     22 H8         34.5947   33.0316   -3.6455 H         1 <0>         0.0600 
     23 H9         36.9647   33.2321    1.8776 H         1 <0>         0.0600 
     24 H10        36.8920   34.0838    0.3738 H         1 <0>         0.0600 
     25 H11        35.1146   30.0772    0.5437 H         1 <0>         0.0600 
     26 H12        36.6617   30.2482   -0.2144 H         1 <0>         0.0600 
     27 H13        34.2295   33.6129    0.9340 H         1 <0>         0.0600 
     28 H14        33.6863   31.9449    1.0324 H         1 <0>         0.0600 
     29 H15        35.5258   33.4500   -1.1562 H         1 <0>         0.2900 
     30 H16        37.3224   29.8067   -4.3376 H         1 <0>         0.4180 
     31 H17        32.1363   31.9010   -2.9558 H         1 <0>         0.4180 
     32 H18        38.8795   33.1030    1.0363 H         1 <0>         0.4180 
     33 H19        36.0499   30.1753    2.4589 H         1 <0>         0.4180 
     34 H20        34.7158   31.6675    2.8937 H         1 <0>         0.4180 
@<TRIPOS>BOND
     1    1    3 1    
     2    1    9 1    
     3    1   15 1    
     4    1   16 1    
     5    2    4 1    
     6    2    9 1    
     7    2   17 1    
     8    2   18 1    
     9    3   10 1    
    10    3   19 1    
    11    3   20 1    
    12    4   11 1    
    13    4   21 1    
    14    4   22 1    
    15    5    8 1    
    16    5   12 1    
    17    5   23 1    
    18    5   24 1    
    19    6    8 1    
    20    6   13 1    
    21    6   25 1    
    22    6   26 1    
    23    7    8 1    
    24    7   14 1    
    25    7   27 1    
    26    7   28 1    
    27    8    9 1    
    28    9   29 1    
    29   10   30 1    
    30   11   31 1    
    31   12   32 1    
    32   13   33 1    
    33   14   34 1    
@<TRIPOS>SUBSTRUCTURE
     1 <0>         1 GROUP             0       ****    0 ROOT    
@<TRIPOS>MOLECULE
glcm-ligand
34   33    1
SMALL
USER_CHARGES


@<TRIPOS>ATOM
      1 C1         35.9113   31.7933   -2.0393 C.3       1 <0>         0.1500 
      2 C2         34.4897   33.6622   -1.3740 C.3       1 <0>         0.1500 
      3 C3         34.8356   30.6954   -2.0600 C.3       1 <0>         0.1450 
      4 C4         34.5137   34.0751   -2.8557 C.3       1 <0>         0.1450 
      5 C5         37.3629   33.1378    0.8357 C.3       1 <0>         0.1450 
      6 C6         35.9575   31.0050    0.6781 C.3       1 <0>         0.1450 
      7 C7         34.9089   33.2242    1.3963 C.3       1 <0>         0.1450 
      8 C8         35.9704   32.5519    0.4511 C.3       1 <0>         0.2700 
      9 N1         35.7193   32.8808   -1.0188 N.4       1 <0>        -0.1000 
     10 O1         35.1145   29.7752   -3.0930 O.3       1 <0>        -0.6830 
     11 O2         35.3759   35.1814   -3.0080 O.3       1 <0>        -0.6830 
     12 O3         38.4062   32.2441    0.4932 O.3       1 <0>        -0.6830 
     13 O4         36.7143   30.5771    1.7918 O.3       1 <0>        -0.6830 
     14 O5         33.5537   32.9804    1.0672 O.3       1 <0>        -0.6830 
     15 H1         36.0741   32.2026   -3.0358 H         1 <0>         0.0600 
     16 H2         36.8437   31.2700   -1.8246 H         1 <0>         0.0600 
     17 H3         33.6048   33.0568   -1.1702 H         1 <0>         0.0600 
     18 H4         34.3143   34.5746   -0.8154 H         1 <0>         0.0600 
     19 H5         34.7218   30.1951   -1.1014 H         1 <0>         0.0600 
     20 H6         33.8656   31.1489   -2.2673 H         1 <0>         0.0600 
     21 H7         34.8395   33.2663   -3.5098 H         1 <0>         0.0600 
     22 H8         33.5142   34.3665   -3.1804 H         1 <0>         0.0600 
     23 H9         37.4442   33.3741    1.8910 H         1 <0>         0.0600 
     24 H10        37.5496   34.0887    0.3366 H         1 <0>         0.0600 
     25 H11        34.9343   30.6472    0.7994 H         1 <0>         0.0600 
     26 H12        36.3881   30.4714   -0.1675 H         1 <0>         0.0600 
     27 H13        35.0305   32.8688    2.4208 H         1 <0>         0.0600 
     28 H14        35.0259   34.3083    1.4019 H         1 <0>         0.0600 
     29 H15        36.4590   33.5489   -1.2045 H         1 <0>         0.2900 
     30 H16        35.8277   29.2144   -2.8220 H         1 <0>         0.4180 
     31 H17        34.9622   35.9485   -2.6382 H         1 <0>         0.4180 
     32 H18        38.4288   31.5451    1.1310 H         1 <0>         0.4180 
     33 H19        36.1296   30.2711    2.4694 H         1 <0>         0.4180 
     34 H20        33.3437   32.0806    1.2686 H         1 <0>         0.4180 
@<TRIPOS>BOND
     1    1    3 1    
     2    1    9 1    
     3    1   15 1    
     4    1   16 1    
     5    2    4 1    
     6    2    9 1    
     7    2   17 1    
     8    2   18 1    
     9    3   10 1    
    10    3   19 1    
    11    3   20 1    
    12    4   11 1    
    13    4   21 1    
    14    4   22 1    
    15    5    8 1    
    16    5   12 1    
    17    5   23 1    
    18    5   24 1    
    19    6    8 1    
    20    6   13 1    
    21    6   25 1    
    22    6   26 1    
    23    7    8 1    
    24    7   14 1    
    25    7   27 1    
    26    7   28 1    
    27    8    9 1    
    28    9   29 1    
    29   10   30 1    
    30   11   31 1    
    31   12   32 1    
    32   13   33 1    
    33   14   34 1    
@<TRIPOS>SUBSTRUCTURE
     1 <0>         1 GROUP             0       ****    0 ROOT    
@<TRIPOS>MOLECULE
glcm-ligand
34   33    1
SMALL
USER_CHARGES


@<TRIPOS>ATOM
      1 C1         34.0977   31.3761   -1.9205 C.3       1 <0>         0.1500 
      2 C2         34.6567   33.7722   -1.8097 C.3       1 <0>         0.1500 
      3 C3         34.0187   31.2980   -3.4625 C.3       1 <0>         0.1450 
      4 C4         35.4008   34.3157   -3.0455 C.3       1 <0>         0.1450 
      5 C5         36.8961   33.1006    0.0886 C.3       1 <0>         0.1450 
      6 C6         35.9123   30.7171    0.2694 C.3       1 <0>         0.1450 
      7 C7         34.4848   32.7157    1.0108 C.3       1 <0>         0.1450 
      8 C8         35.5859   32.2338    0.0090 C.3       1 <0>         0.2700 
      9 N1         35.0821   32.3907   -1.4201 N.4       1 <0>        -0.1000 
     10 O1         33.0485   32.1761   -4.0023 O.3       1 <0>        -0.6830 
     11 O2         34.4877   34.5751   -4.0924 O.3       1 <0>        -0.6830 
     12 O3         37.6914   32.9752    1.2498 O.3       1 <0>        -0.6830 
     13 O4         36.7059   30.3760    1.3923 O.3       1 <0>        -0.6830 
     14 O5         34.8383   32.5753    2.3678 O.3       1 <0>        -0.6830 
     15 H1         34.3810   30.3702   -1.6301 H         1 <0>         0.0600 
     16 H2         33.1147   31.5477   -1.4826 H         1 <0>         0.0600 
     17 H3         33.5819   33.7753   -1.9825 H         1 <0>         0.0600 
     18 H4         34.7908   34.4930   -1.0144 H         1 <0>         0.0600 
     19 H5         34.9886   31.4760   -3.9277 H         1 <0>         0.0600 
     20 H6         33.7380   30.2877   -3.7541 H         1 <0>         0.0600 
     21 H7         35.9140   35.2475   -2.8022 H         1 <0>         0.0600 
     22 H8         36.1592   33.6175   -3.4021 H         1 <0>         0.0600 
     23 H9         36.6977   34.1660   -0.0213 H         1 <0>         0.0600 
     24 H10        37.5467   32.8310   -0.7439 H         1 <0>         0.0600 
     25 H11        34.9928   30.1486    0.3992 H         1 <0>         0.0600 
     26 H12        36.4144   30.3042   -0.6019 H         1 <0>         0.0600 
     27 H13        34.2485   33.7702    0.8884 H         1 <0>         0.0600 
     28 H14        33.5508   32.1757    0.8534 H         1 <0>         0.0600 
     29 H15        35.9114   32.2107   -1.9667 H         1 <0>         0.2900 
     30 H16        33.4724   33.0178   -4.1600 H         1 <0>         0.4180 
     31 H17        34.0021   35.3708   -3.8968 H         1 <0>         0.4180 
     32 H18        37.3963   33.5868    1.9198 H         1 <0>         0.4180 
     33 H19        36.1246   30.1768    2.1255 H         1 <0>         0.4180 
     34 H20        34.7154   31.6640    2.6360 H         1 <0>         0.4180 
@<TRIPOS>BOND
     1    1    3 1    
     2    1    9 1    
     3    1   15 1    
     4    1   16 1    
     5    2    4 1    
     6    2    9 1    
     7    2   17 1    
     8    2   18 1    
     9    3   10 1    
    10    3   19 1    
    11    3   20 1    
    12    4   11 1    
    13    4   21 1    
    14    4   22 1    
    15    5    8 1    
    16    5   12 1    
    17    5   23 1    
    18    5   24 1    
    19    6    8 1    
    20    6   13 1    
    21    6   25 1    
    22    6   26 1    
    23    7    8 1    
    24    7   14 1    
    25    7   27 1    
    26    7   28 1    
    27    8    9 1    
    28    9   29 1    
    29   10   30 1    
    30   11   31 1    
    31   12   32 1    
    32   13   33 1    
    33   14   34 1    
@<TRIPOS>SUBSTRUCTURE
     1 <0>         1 GROUP             0       ****    0 ROOT    
@<TRIPOS>MOLECULE
glcm-ligand
34   33    1
SMALL
USER_CHARGES


@<TRIPOS>ATOM
      1 C1         35.5445   33.8989   -1.7990 C.3       1 <0>         0.1500 
      2 C2         34.4341   31.7445   -1.5121 C.3       1 <0>         0.1500 
      3 C3         34.4578   34.6383   -2.5961 C.3       1 <0>         0.1450 
      4 C4         35.3884   31.2036   -2.5906 C.3       1 <0>         0.1450 
      5 C5         35.2298   33.2527    1.6736 C.3       1 <0>         0.1450 
      6 C6         37.3522   33.2192    0.2443 C.3       1 <0>         0.1450 
      7 C7         36.0478   31.0710    0.7173 C.3       1 <0>         0.1450 
      8 C8         35.9236   32.6124    0.4332 C.3       1 <0>         0.2700 
      9 N1         35.0518   32.9024   -0.7864 N.4       1 <0>        -0.1000 
     10 O1         35.0589   35.4402   -3.5897 O.3       1 <0>        -0.6830 
     11 O2         36.6533   30.9754   -2.0089 O.3       1 <0>        -0.6830 
     12 O3         34.0265   32.5779    1.9918 O.3       1 <0>        -0.6830 
     13 O4         38.2325   32.9735    1.3216 O.3       1 <0>        -0.6830 
     14 O5         36.7145   30.7204    1.9159 O.3       1 <0>        -0.6830 
     15 H1         36.2546   34.5989   -1.3601 H         1 <0>         0.0600 
     16 H2         36.1364   33.3742   -2.5497 H         1 <0>         0.0600 
     17 H3         34.1944   30.9557   -0.7971 H         1 <0>         0.0600 
     18 H4         33.4931   31.9321   -2.0168 H         1 <0>         0.0600 
     19 H5         33.7141   33.9688   -3.0211 H         1 <0>         0.0600 
     20 H6         33.9055   35.2954   -1.9232 H         1 <0>         0.0600 
     21 H7         35.0252   30.2823   -3.0461 H         1 <0>         0.0600 
     22 H8         35.5016   31.9342   -3.3924 H         1 <0>         0.0600 
     23 H9         35.0085   34.3055    1.5364 H         1 <0>         0.0600 
     24 H10        35.8765   33.2306    2.5509 H         1 <0>         0.0600 
     25 H11        37.8101   32.8363   -0.6685 H         1 <0>         0.0600 
     26 H12        37.3196   34.3041    0.1587 H         1 <0>         0.0600 
     27 H13        35.0590   30.6148    0.7872 H         1 <0>         0.0600 
     28 H14        36.5910   30.5712   -0.0854 H         1 <0>         0.0600 
     29 H15        34.2449   33.3413   -0.3571 H         1 <0>         0.2900 
     30 H16        34.4553   36.1255   -3.8396 H         1 <0>         0.4180 
     31 H17        36.9469   31.7704   -1.5866 H         1 <0>         0.4180 
     32 H18        34.2395   31.7159    2.3197 H         1 <0>         0.4180 
     33 H19        38.0170   33.5494    2.0403 H         1 <0>         0.4180 
     34 H20        36.0750   30.4465    2.5566 H         1 <0>         0.4180 
@<TRIPOS>BOND
     1    1    3 1    
     2    1    9 1    
     3    1   15 1    
     4    1   16 1    
     5    2    4 1    
     6    2    9 1    
     7    2   17 1    
     8    2   18 1    
     9    3   10 1    
    10    3   19 1    
    11    3   20 1    
    12    4   11 1    
    13    4   21 1    
    14    4   22 1    
    15    5    8 1    
    16    5   12 1    
    17    5   23 1    
    18    5   24 1    
    19    6    8 1    
    20    6   13 1    
    21    6   25 1    
    22    6   26 1    
    23    7    8 1    
    24    7   14 1    
    25    7   27 1    
    26    7   28 1    
    27    8    9 1    
    28    9   29 1    
    29   10   30 1    
    30   11   31 1    
    31   12   32 1    
    32   13   33 1    
    33   14   34 1    
@<TRIPOS>SUBSTRUCTURE
     1 <0>         1 GROUP             0       ****    0 ROOT    
@<TRIPOS>MOLECULE
glcm-ligand
34   33    1
SMALL
USER_CHARGES


@<TRIPOS>ATOM
      1 C1         34.4849   33.4771   -0.4806 C.3       1 <0>         0.1500 
      2 C2         35.9405   31.7658   -1.6913 C.3       1 <0>         0.1500 
      3 C3         34.5069   34.3156   -1.7902 C.3       1 <0>         0.1450 
      4 C4         35.0597   30.7142   -2.3878 C.3       1 <0>         0.1450 
      5 C5         37.5449   32.7475    0.7101 C.3       1 <0>         0.1450 
      6 C6         36.3142   30.4576    0.9682 C.3       1 <0>         0.1450 
      7 C7         35.4242   32.4137    2.1656 C.3       1 <0>         0.1450 
      8 C8         36.1664   32.0064    0.8501 C.3       1 <0>         0.2700 
      9 N1         35.3283   32.2329   -0.4002 N.4       1 <0>        -0.1000 
     10 O1         33.9142   33.6687   -2.8951 O.3       1 <0>        -0.6830 
     11 O2         35.6543   30.3572   -3.6170 O.3       1 <0>        -0.6830 
     12 O3         38.4444   32.5753    1.7923 O.3       1 <0>        -0.6830 
     13 O4         37.1142   29.9818    2.0433 O.3       1 <0>        -0.6830 
     14 O5         35.5119   33.7753    2.5089 O.3       1 <0>        -0.6830 
     15 H1         33.4580   33.1952   -0.2447 H         1 <0>         0.0600 
     16 H2         34.7763   34.1753    0.2932 H         1 <0>         0.0600 
     17 H3         36.1823   32.5798   -2.3689 H         1 <0>         0.0600 
     18 H4         36.9158   31.3089   -1.5517 H         1 <0>         0.0600 
     19 H5         33.9193   35.2231   -1.6347 H         1 <0>         0.0600 
     20 H6         35.5142   34.6503   -2.0419 H         1 <0>         0.0600 
     21 H7         34.9692   29.8203   -1.7699 H         1 <0>         0.0600 
     22 H8         34.0502   31.0829   -2.5696 H         1 <0>         0.0600 
     23 H9         37.3923   33.8183    0.5685 H         1 <0>         0.0600 
     24 H10        38.0929   32.4126   -0.1676 H         1 <0>         0.0600 
     25 H11        35.3309   29.9875    0.9923 H         1 <0>         0.0600 
     26 H12        36.7142   30.0437    0.0662 H         1 <0>         0.0600 
     27 H13        34.3723   32.1283    2.1285 H         1 <0>         0.0600 
     28 H14        35.8427   31.8940    3.0282 H         1 <0>         0.0600 
     29 H15        34.6061   31.5412   -0.2570 H         1 <0>         0.2900 
     30 H16        33.8349   34.3027   -3.5962 H         1 <0>         0.4180 
     31 H17        35.1671   29.6413   -3.9977 H         1 <0>         0.4180 
     32 H18        38.3142   33.2643    2.4433 H         1 <0>         0.4180 
     33 H19        36.5179   29.7450    2.7526 H         1 <0>         0.4180 
     34 H20        36.4194   34.0467    2.6240 H         1 <0>         0.4180 
@<TRIPOS>BOND
     1    1    3 1    
     2    1    9 1    
     3    1   15 1    
     4    1   16 1    
     5    2    4 1    
     6    2    9 1    
     7    2   17 1    
     8    2   18 1    
     9    3   10 1    
    10    3   19 1    
    11    3   20 1    
    12    4   11 1    
    13    4   21 1    
    14    4   22 1    
    15    5    8 1    
    16    5   12 1    
    17    5   23 1    
    18    5   24 1    
    19    6    8 1    
    20    6   13 1    
    21    6   25 1    
    22    6   26 1    
    23    7    8 1    
    24    7   14 1    
    25    7   27 1    
    26    7   28 1    
    27    8    9 1    
    28    9   29 1    
    29   10   30 1    
    30   11   31 1    
    31   12   32 1    
    32   13   33 1    
    33   14   34 1    
@<TRIPOS>SUBSTRUCTURE
     1 <0>         1 GROUP             0       ****    0 ROOT    
