@<TRIPOS>MOLECULE
gria2-ligand
40   42    1
SMALL
USER_CHARGES


@<TRIPOS>ATOM
      1 C1          6.9449   34.8705   -1.1770 C.ar      1 <0>        -0.1150 
      2 C2          7.4730   32.1592   -0.6612 C.ar      1 <0>        -0.1150 
      3 C3          6.7340   32.6961    2.7213 C.3       1 <0>         0.0900 
      4 C4          5.0500   31.5999    1.2639 C.3       1 <0>         0.0900 
      5 C5          6.6474   31.4792    3.6295 C.3       1 <0>         0.1400 
      6 C6          4.9599   30.4761    2.2911 C.3       1 <0>         0.1400 
      7 C7          9.1144   30.5838   -2.6113 C.3       1 <0>        -0.5355 
      8 C8          6.5212   34.3310    0.0472 C.ar      1 <0>         0.1500 
      9 C9          7.6102   34.0643   -2.1100 C.ar      1 <0>         0.0850 
     10 C10         7.9349   32.7139   -1.8672 C.ar      1 <0>        -0.0383 
     11 C11         6.7771   32.9508    0.2781 C.ar      1 <0>         0.2100 
     12 C12         8.6754   34.0302   -4.2531 C.ar      1 <0>         0.5000 
     13 C13         9.1218   32.5682   -3.9985 C.ar      1 <0>         0.5000 
     14 C14         5.7991   35.2507    1.0405 C.3       1 <0>         0.4500 
     15 N1          7.9349   34.6292   -3.3327 N.pl3     1 <0>        -0.3850 
     16 N2          8.6996   31.9776   -2.8476 N.pl3     1 <0>        -0.0842 
     17 N3          6.3294   32.2696    1.3990 N.pl3     1 <0>        -0.6300 
     18 O1          8.8046   28.0008   -3.1385 O.co2     1 <0>        -1.1200 
     19 O2          6.7533   29.3495   -2.5384 O.co2     1 <0>        -1.1200 
     20 O3          9.0500   34.6292   -5.2466 O.2       1 <0>        -0.5000 
     21 O4          9.8500   32.0422   -4.8466 O.2       1 <0>        -0.5000 
     22 O5          7.8500   29.6553   -4.7875 O.co2     1 <0>        -1.1200 
     23 O6          5.2937   31.0292    3.5578 O.3       1 <0>        -0.4000 
     24 F1          5.4499   36.4057    0.4722 F         1 <0>        -0.2000 
     25 F2          4.6813   34.7069    1.5147 F         1 <0>        -0.2000 
     26 F3          6.6039   35.5438    2.0623 F         1 <0>        -0.2000 
     27 P1          8.0470   29.3000   -3.3241 P.3       1 <0>         1.8579 
     28 H1          6.7487   35.9047   -1.4184 H         1 <0>         0.1150 
     29 H2          7.6288   31.1150   -0.4366 H         1 <0>         0.1150 
     30 H3          6.0621   33.4637    3.1005 H         1 <0>         0.0600 
     31 H4          7.7440   33.1063    2.7042 H         1 <0>         0.0600 
     32 H5          4.9094   31.2088    0.2548 H         1 <0>         0.0600 
     33 H6          4.2500   32.3150    1.4486 H         1 <0>         0.0600 
     34 H7          7.3452   30.6958    3.3273 H         1 <0>         0.0300 
     35 H8          6.8949   31.7535    4.6548 H         1 <0>         0.0300 
     36 H9          5.6335   29.6544    2.0416 H         1 <0>         0.0300 
     37 H10         3.9484   30.0710    2.3222 H         1 <0>         0.0300 
     38 H11        10.1213   30.4311   -3.0011 H         1 <0>         0.0800 
     39 H12         9.2571   30.4005   -1.5492 H         1 <0>         0.0800 
     40 H13         7.6221   35.5812   -3.5046 H         1 <0>         0.3000 
@<TRIPOS>BOND
     1    1    8 ar   
     2    1    9 ar   
     3    1   28 1    
     4    2   10 ar   
     5    2   11 ar   
     6    2   29 1    
     7    3    5 1    
     8    3   17 1    
     9    3   30 1    
    10    3   31 1    
    11    4    6 1    
    12    4   17 1    
    13    4   32 1    
    14    4   33 1    
    15    5   23 1    
    16    5   34 1    
    17    5   35 1    
    18    6   23 1    
    19    6   36 1    
    20    6   37 1    
    21    7   16 1    
    22    7   27 1    
    23    7   38 1    
    24    7   39 1    
    25    8   11 ar   
    26    8   14 1    
    27    9   10 ar   
    28    9   15 ar   
    29   10   16 ar   
    30   11   17 1    
    31   12   13 ar   
    32   12   15 ar   
    33   12   20 2    
    34   13   16 ar   
    35   13   21 2    
    36   14   24 1    
    37   14   25 1    
    38   14   26 1    
    39   15   40 1    
    40   18   27 2    
    41   19   27 1    
    42   22   27 1    
@<TRIPOS>SUBSTRUCTURE
     1 <0>         1 GROUP             0       ****    0 ROOT    
@<TRIPOS>MOLECULE
gria2-ligand
40   42    1
SMALL
USER_CHARGES


@<TRIPOS>ATOM
      1 C1          6.8934   34.7998   -1.1068 C.ar      1 <0>        -0.1150 
      2 C2          7.4500   32.0987   -0.6272 C.ar      1 <0>        -0.1150 
      3 C3          7.0755   31.0981    2.1483 C.3       1 <0>         0.0900 
      4 C4          4.9676   32.3192    1.9559 C.3       1 <0>         0.0900 
      5 C5          6.2148   29.8186    2.1509 C.3       1 <0>         0.1400 
      6 C6          4.2185   30.9858    1.9830 C.3       1 <0>         0.1400 
      7 C7          9.1366   30.5858   -2.5999 C.3       1 <0>        -0.5355 
      8 C8          6.4952   34.2526    0.1287 C.ar      1 <0>         0.1500 
      9 C9          7.5759   34.0278   -2.0570 C.ar      1 <0>         0.0850 
     10 C10         7.9101   32.6790   -1.8307 C.ar      1 <0>        -0.0383 
     11 C11         6.7552   32.8573    0.3546 C.ar      1 <0>         0.2100 
     12 C12         8.6500   34.0418   -4.2184 C.ar      1 <0>         0.5000 
     13 C13         9.1005   32.5767   -3.9791 C.ar      1 <0>         0.5000 
     14 C14         5.9020   35.2372    1.1709 C.3       1 <0>         0.4500 
     15 N1          7.9269   34.6292   -3.2671 N.pl3     1 <0>        -0.3850 
     16 N2          8.6904   31.9713   -2.8262 N.pl3     1 <0>        -0.0842 
     17 N3          6.3382   32.1915    1.5228 N.pl3     1 <0>        -0.6300 
     18 O1          6.8144   29.2841   -2.4857 O.co2     1 <0>        -1.1200 
     19 O2          7.8500   29.6416   -4.7567 O.co2     1 <0>        -1.1200 
     20 O3          8.9698   34.6292   -5.2466 O.2       1 <0>        -0.5000 
     21 O4          9.8180   32.0618   -4.8466 O.2       1 <0>        -0.5000 
     22 O5          8.8889   28.0009   -3.1443 O.co2     1 <0>        -1.1200 
     23 O6          4.9537   30.0633    2.7527 O.3       1 <0>        -0.4000 
     24 F1          5.8500   36.4865    0.7067 F         1 <0>        -0.2000 
     25 F2          4.6500   35.0112    1.5410 F         1 <0>        -0.2000 
     26 F3          6.6651   35.2426    2.2642 F         1 <0>        -0.2000 
     27 P1          8.0900   29.2792   -3.3015 P.3       1 <0>         1.8579 
     28 H1          6.7012   35.8376   -1.3343 H         1 <0>         0.1150 
     29 H2          7.6120   31.0469   -0.4545 H         1 <0>         0.1150 
     30 H3          7.3027   31.3899    3.1740 H         1 <0>         0.0600 
     31 H4          8.0394   30.9236    1.6696 H         1 <0>         0.0600 
     32 H5          4.3899   32.9315    1.2763 H         1 <0>         0.0600 
     33 H6          5.0500   32.7751    2.9407 H         1 <0>         0.0600 
     34 H7          6.0945   29.4240    1.1402 H         1 <0>         0.0300 
     35 H8          6.6500   29.0292    2.7534 H         1 <0>         0.0300 
     36 H9          4.0598   30.6061    0.9718 H         1 <0>         0.0300 
     37 H10         3.2323   31.1192    2.4281 H         1 <0>         0.0300 
     38 H11        10.1417   30.4554   -3.0021 H         1 <0>         0.0800 
     39 H12         9.2963   30.4052   -1.5394 H         1 <0>         0.0800 
     40 H13         7.6071   35.5815   -3.4235 H         1 <0>         0.3000 
@<TRIPOS>BOND
     1    1    8 ar   
     2    1    9 ar   
     3    1   28 1    
     4    2   10 ar   
     5    2   11 ar   
     6    2   29 1    
     7    3    5 1    
     8    3   17 1    
     9    3   30 1    
    10    3   31 1    
    11    4    6 1    
    12    4   17 1    
    13    4   32 1    
    14    4   33 1    
    15    5   23 1    
    16    5   34 1    
    17    5   35 1    
    18    6   23 1    
    19    6   36 1    
    20    6   37 1    
    21    7   16 1    
    22    7   27 1    
    23    7   38 1    
    24    7   39 1    
    25    8   11 ar   
    26    8   14 1    
    27    9   10 ar   
    28    9   15 ar   
    29   10   16 ar   
    30   11   17 1    
    31   12   13 ar   
    32   12   15 ar   
    33   12   20 2    
    34   13   16 ar   
    35   13   21 2    
    36   14   24 1    
    37   14   25 1    
    38   14   26 1    
    39   15   40 1    
    40   18   27 2    
    41   19   27 1    
    42   22   27 1    
@<TRIPOS>SUBSTRUCTURE
     1 <0>         1 GROUP             0       ****    0 ROOT    
@<TRIPOS>MOLECULE
gria2-ligand
40   42    1
SMALL
USER_CHARGES


@<TRIPOS>ATOM
      1 C1          7.0724   34.6177   -1.0676 C.ar      1 <0>        -0.1150 
      2 C2          7.4049   31.8236   -0.9049 C.ar      1 <0>        -0.1150 
      3 C3          5.0283   30.9576    1.0788 C.3       1 <0>         0.0900 
      4 C4          7.0500   31.5931    2.3275 C.3       1 <0>         0.0900 
      5 C5          4.2033   31.1687    2.3614 C.3       1 <0>         0.1400 
      6 C6          6.1840   31.8292    3.5534 C.3       1 <0>         0.1400 
      7 C7          9.2460   30.4761   -2.8437 C.3       1 <0>        -0.5355 
      8 C8          6.5558   33.9354    0.0458 C.ar      1 <0>         0.1500 
      9 C9          7.7622   33.9150   -2.0631 C.ar      1 <0>         0.0850 
     10 C10         7.9907   32.5196   -1.9816 C.ar      1 <0>        -0.0383 
     11 C11         6.6994   32.5206    0.0982 C.ar      1 <0>         0.2100 
     12 C12         8.8286   34.0433   -4.2008 C.ar      1 <0>         0.5000 
     13 C13         9.3059   32.5807   -4.0320 C.ar      1 <0>         0.5000 
     14 C14         5.8986   34.7570    1.1576 C.3       1 <0>         0.4500 
     15 N1          8.2001   34.6273   -3.1820 N.pl3     1 <0>        -0.3850 
     16 N2          8.8084   31.8775   -2.9817 N.pl3     1 <0>        -0.0842 
     17 N3          6.2121   31.7841    1.1734 N.pl3     1 <0>        -0.6300 
     18 O1          9.2007   27.9889   -3.7762 O.co2     1 <0>        -1.1200 
     19 O2          6.9991   29.0741   -3.1845 O.co2     1 <0>        -1.1200 
     20 O3          9.0500   34.6292   -5.2466 O.2       1 <0>        -0.5000 
     21 O4         10.1322   32.1574   -4.8466 O.2       1 <0>        -0.5000 
     22 O5          8.2500   29.8056   -5.2466 O.co2     1 <0>        -1.1200 
     23 O6          5.0057   31.0292    3.5390 O.3       1 <0>        -0.4000 
     24 F1          6.7223   34.8327    2.2031 F         1 <0>        -0.2000 
     25 F2          5.6363   36.0049    0.7629 F         1 <0>        -0.2000 
     26 F3          4.7454   34.2329    1.5534 F         1 <0>        -0.2000 
     27 P1          8.3535   29.2439   -3.8394 P.3       1 <0>         1.8579 
     28 H1          6.9554   35.6879   -1.1598 H         1 <0>         0.1150 
     29 H2          7.4985   30.7519   -0.8171 H         1 <0>         0.1150 
     30 H3          5.3276   29.9135    0.9824 H         1 <0>         0.0600 
     31 H4          4.4424   31.2137    0.1952 H         1 <0>         0.0600 
     32 H5          7.8500   32.3251    2.3105 H         1 <0>         0.0600 
     33 H6          7.4890   30.5951    2.3246 H         1 <0>         0.0600 
     34 H7          3.7535   32.1591    2.3534 H         1 <0>         0.0300 
     35 H8          3.3781   30.4579    2.4013 H         1 <0>         0.0300 
     36 H9          5.8842   32.8765    3.5534 H         1 <0>         0.0300 
     37 H10         6.7511   31.6436    4.4655 H         1 <0>         0.0300 
     38 H11        10.3026   30.4072   -3.1055 H         1 <0>         0.0800 
     39 H12         9.2571   30.1697   -1.8009 H         1 <0>         0.0800 
     40 H13         7.9075   35.5939   -3.2725 H         1 <0>         0.3000 
@<TRIPOS>BOND
     1    1    8 ar   
     2    1    9 ar   
     3    1   28 1    
     4    2   10 ar   
     5    2   11 ar   
     6    2   29 1    
     7    3    5 1    
     8    3   17 1    
     9    3   30 1    
    10    3   31 1    
    11    4    6 1    
    12    4   17 1    
    13    4   32 1    
    14    4   33 1    
    15    5   23 1    
    16    5   34 1    
    17    5   35 1    
    18    6   23 1    
    19    6   36 1    
    20    6   37 1    
    21    7   16 1    
    22    7   27 1    
    23    7   38 1    
    24    7   39 1    
    25    8   11 ar   
    26    8   14 1    
    27    9   10 ar   
    28    9   15 ar   
    29   10   16 ar   
    30   11   17 1    
    31   12   13 ar   
    32   12   15 ar   
    33   12   20 2    
    34   13   16 ar   
    35   13   21 2    
    36   14   24 1    
    37   14   25 1    
    38   14   26 1    
    39   15   40 1    
    40   18   27 2    
    41   19   27 1    
    42   22   27 1    
@<TRIPOS>SUBSTRUCTURE
     1 <0>         1 GROUP             0       ****    0 ROOT    
