@<TRIPOS>MOLECULE
grik1-ligand
38   38    1
SMALL
USER_CHARGES


@<TRIPOS>ATOM
      1 C1         41.4575    7.5665    9.0686 C.3       1 <0>        -0.1800 
      2 C2         39.5684    8.7181    7.8837 C.3       1 <0>        -0.1800 
      3 C3         41.2116    7.3374    6.6119 C.3       1 <0>        -0.1800 
      4 C4         38.8028    5.1283    5.9252 C.3       1 <0>        -0.0050 
      5 C5         37.2954    2.4648    9.2122 C.3       1 <0>        -0.4355 
      6 C6         38.8656    5.3152    7.4223 C.2       1 <0>        -0.3860 
      7 C7         39.5258    6.2475    8.1898 C.2       1 <0>         0.2330 
      8 C8         38.1929    4.5168    8.3903 C.2       1 <0>         0.5580 
      9 C9         40.0008    4.3144    5.3825 C.3       1 <0>         0.0625 
     10 C10        39.8219    3.9891    3.8939 C.2       1 <0>         0.4450 
     11 C11        40.4225    7.4378    7.9323 C.3       1 <0>         0.1150 
     12 N1         41.2734    5.0285    5.5623 N.4       1 <0>         0.2475 
     13 N2         38.4236    4.9119    9.6305 N.2       1 <0>        -0.4130 
     14 O1         38.8021    3.3490    3.5528 O.co2     1 <0>        -0.7225 
     15 O2         34.6458    2.5472    9.6293 O.co2     1 <0>        -1.1200 
     16 O3         35.4915    1.2073    7.6641 O.co2     1 <0>        -1.1200 
     17 O4         40.7091    4.3943    3.1111 O.co2     1 <0>        -0.7225 
     18 O5         35.8562    0.3637    9.9892 O.co2     1 <0>        -1.1200 
     19 O6         39.2438    6.0333    9.5056 O.3       1 <0>        -0.1220 
     20 O7         37.4251    3.4051    8.1450 O.3       1 <0>        -0.3225 
     21 P1         35.7005    1.5922    9.1158 P.3       1 <0>         1.8579 
     22 H1         42.0732    6.6694    9.1433 H         1 <0>         0.0600 
     23 H2         42.1258    8.4130    8.9079 H         1 <0>         0.0600 
     24 H3         40.9774    7.7147   10.0365 H         1 <0>         0.0600 
     25 H4         38.8261    8.6635    7.0862 H         1 <0>         0.0600 
     26 H5         39.0292    8.8739    8.8190 H         1 <0>         0.0600 
     27 H6         40.1797    9.6031    7.7059 H         1 <0>         0.0600 
     28 H7         40.5576    7.3050    5.7427 H         1 <0>         0.0600 
     29 H8         41.8640    8.2003    6.4757 H         1 <0>         0.0600 
     30 H9         41.8472    6.4521    6.5932 H         1 <0>         0.0600 
     31 H10        38.7792    6.0985    5.4263 H         1 <0>         0.0600 
     32 H11        37.8651    4.6564    5.6360 H         1 <0>         0.0600 
     33 H12        38.1060    1.7445    9.1130 H         1 <0>         0.0800 
     34 H13        37.4388    2.9262   10.1888 H         1 <0>         0.0800 
     35 H14        40.0853    3.3776    5.9346 H         1 <0>         0.0600 
     36 H15        42.0240    4.4866    5.1641 H         1 <0>         0.2100 
     37 H16        41.2311    5.9267    5.1031 H         1 <0>         0.2100 
     38 H17        41.4584    5.1769    6.5487 H         1 <0>         0.2100 
@<TRIPOS>BOND
     1    1   11 1    
     2    1   22 1    
     3    1   23 1    
     4    1   24 1    
     5    2   11 1    
     6    2   25 1    
     7    2   26 1    
     8    2   27 1    
     9    3   11 1    
    10    3   28 1    
    11    3   29 1    
    12    3   30 1    
    13    4    6 1    
    14    4    9 1    
    15    4   31 1    
    16    4   32 1    
    17    5   20 1    
    18    5   21 1    
    19    5   33 1    
    20    5   34 1    
    21    6    7 2    
    22    6    8 1    
    23    7   11 1    
    24    7   19 1    
    25    8   13 2    
    26    8   20 1    
    27    9   10 1    
    28    9   12 1    
    29    9   35 1    
    30   10   14 1    
    31   10   17 2    
    32   12   36 1    
    33   12   37 1    
    34   12   38 1    
    35   13   19 1    
    36   15   21 2    
    37   16   21 1    
    38   18   21 1    
@<TRIPOS>SUBSTRUCTURE
     1 <0>         1 GROUP             0       ****    0 ROOT    
@<TRIPOS>MOLECULE
grik1-ligand
38   38    1
SMALL
USER_CHARGES


@<TRIPOS>ATOM
      1 C1         41.4003    7.6688    8.9697 C.3       1 <0>        -0.1800 
      2 C2         39.3114    8.6637    8.0321 C.3       1 <0>        -0.1800 
      3 C3         40.9558    7.5421    6.5379 C.3       1 <0>        -0.1800 
      4 C4         38.7463    5.0194    5.9647 C.3       1 <0>        -0.0050 
      5 C5         37.3614    2.2972    9.2198 C.3       1 <0>        -0.4355 
      6 C6         38.8976    5.2290    7.4536 C.2       1 <0>        -0.3860 
      7 C7         39.5181    6.2062    8.1999 C.2       1 <0>         0.2330 
      8 C8         38.3313    4.3751    8.4415 C.2       1 <0>         0.5580 
      9 C9         39.7186    3.9430    5.4283 C.3       1 <0>         0.0625 
     10 C10        39.4814    3.5789    3.9539 C.2       1 <0>         0.4450 
     11 C11        40.2812    7.4821    7.9240 C.3       1 <0>         0.1150 
     12 N1         41.1181    4.3698    5.5624 N.4       1 <0>         0.2475 
     13 N2         38.5636    4.7917    9.6745 N.2       1 <0>        -0.4130 
     14 O1         39.9182    2.4766    3.5624 O.co2     1 <0>        -0.7225 
     15 O2         35.5165    1.1933    7.6026 O.co2     1 <0>        -1.1200 
     16 O3         35.6842    0.3721    9.9629 O.co2     1 <0>        -1.1200 
     17 O4         38.9221    4.3932    3.1883 O.co2     1 <0>        -0.7225 
     18 O5         34.7180    2.6496    9.5040 O.co2     1 <0>        -1.1200 
     19 O6         39.2852    5.9746    9.5233 O.3       1 <0>        -0.1220 
     20 O7         37.5785    3.2551    8.1832 O.3       1 <0>        -0.3225 
     21 P1         35.7014    1.5882    9.0562 P.3       1 <0>         1.8579 
     22 H1         42.0511    6.7967    9.0154 H         1 <0>         0.0600 
     23 H2         42.0190    8.5406    8.7536 H         1 <0>         0.0600 
     24 H3         40.9868    7.8115    9.9661 H         1 <0>         0.0600 
     25 H4         38.5118    8.5984    7.2932 H         1 <0>         0.0600 
     26 H5         38.8468    8.7226    9.0173 H         1 <0>         0.0600 
     27 H6         39.8414    9.5942    7.8618 H         1 <0>         0.0600 
     28 H7         40.2453    7.4958    5.7174 H         1 <0>         0.0600 
     29 H8         41.4927    8.4828    6.4084 H         1 <0>         0.0600 
     30 H9         41.6939    6.7519    6.4187 H         1 <0>         0.0600 
     31 H10        38.8427    5.9485    5.4080 H         1 <0>         0.0600 
     32 H11        37.7273    4.6894    5.7556 H         1 <0>         0.0600 
     33 H12        38.1165    1.5193    9.1154 H         1 <0>         0.0800 
     34 H13        37.4604    2.6904   10.2297 H         1 <0>         0.0800 
     35 H14        39.5930    3.0320    6.0167 H         1 <0>         0.0600 
     36 H15        41.7139    3.6767    5.1212 H         1 <0>         0.2100 
     37 H16        41.2427    5.2586    5.1010 H         1 <0>         0.2100 
     38 H17        41.3658    4.4479    6.5459 H         1 <0>         0.2100 
@<TRIPOS>BOND
     1    1   11 1    
     2    1   22 1    
     3    1   23 1    
     4    1   24 1    
     5    2   11 1    
     6    2   25 1    
     7    2   26 1    
     8    2   27 1    
     9    3   11 1    
    10    3   28 1    
    11    3   29 1    
    12    3   30 1    
    13    4    6 1    
    14    4    9 1    
    15    4   31 1    
    16    4   32 1    
    17    5   20 1    
    18    5   21 1    
    19    5   33 1    
    20    5   34 1    
    21    6    7 2    
    22    6    8 1    
    23    7   11 1    
    24    7   19 1    
    25    8   13 2    
    26    8   20 1    
    27    9   10 1    
    28    9   12 1    
    29    9   35 1    
    30   10   14 1    
    31   10   17 2    
    32   12   36 1    
    33   12   37 1    
    34   12   38 1    
    35   13   19 1    
    36   15   21 2    
    37   16   21 1    
    38   18   21 1    
@<TRIPOS>SUBSTRUCTURE
     1 <0>         1 GROUP             0       ****    0 ROOT    
