@<TRIPOS>MOLECULE
hdac2-ligand
38   40    1
SMALL
USER_CHARGES


@<TRIPOS>ATOM
      1 C1         73.1321   35.9268   -4.0709 C.ar      1 <0>        -0.1150 
      2 C2         63.7083   29.2782   -6.0028 C.ar      1 <0>        -0.1150 
      3 C3         72.7150   34.8037   -4.8087 C.ar      1 <0>        -0.1150 
      4 C4         72.7204   36.0713   -2.7335 C.ar      1 <0>        -0.1150 
      5 C5         63.2076   29.6767   -4.7486 C.ar      1 <0>        -0.1150 
      6 C6         65.0853   29.3858   -6.2714 C.ar      1 <0>        -0.1150 
      7 C7         71.8799   33.8356   -4.2180 C.ar      1 <0>        -0.1150 
      8 C8         71.8923   35.0997   -2.1424 C.ar      1 <0>        -0.1150 
      9 C9         64.0833   30.1791   -3.7656 C.ar      1 <0>        -0.1150 
     10 C10        65.9612   29.8871   -5.2890 C.ar      1 <0>        -0.1150 
     11 C11        70.7636   32.5886   -0.8941 C.ar      1 <0>        -0.1150 
     12 C12        69.9354   31.6251   -0.2914 C.ar      1 <0>        -0.1150 
     13 C13        69.5585   32.3231   -2.9831 C.ar      1 <0>        -0.1150 
     14 C14        71.4590   33.9673   -2.8733 C.ar      1 <0>         0.0000 
     15 C15        65.4704   30.2936   -4.0214 C.ar      1 <0>        -0.1150 
     16 C16        70.5899   32.9515   -2.2465 C.ar      1 <0>         0.0000 
     17 C17        68.9121   31.0053   -1.0291 C.ar      1 <0>         0.1800 
     18 C18        68.7097   31.3690   -2.3850 C.ar      1 <0>         0.0850 
     19 C19        66.3725   30.8753   -2.9646 C.2       1 <0>         0.6150 
     20 N1         68.1359   30.0283   -0.4089 N.pl3     1 <0>        -0.9000 
     21 N2         67.6972   30.7873   -3.1900 N.am      1 <0>        -0.3850 
     22 O1         65.8921   31.3779   -1.9462 O.2       1 <0>        -0.5000 
     23 H1         73.7678   36.6701   -4.5262 H         1 <0>         0.1150 
     24 H2         63.0353   28.8932   -6.7559 H         1 <0>         0.1150 
     25 H3         73.0307   34.6878   -5.8337 H         1 <0>         0.1150 
     26 H4         73.0409   36.9302   -2.1603 H         1 <0>         0.1150 
     27 H5         62.1481   29.5969   -4.5408 H         1 <0>         0.1150 
     28 H6         65.4693   29.0875   -7.2359 H         1 <0>         0.1150 
     29 H7         71.5728   32.9830   -4.8035 H         1 <0>         0.1150 
     30 H8         71.5800   35.2356   -1.1164 H         1 <0>         0.1150 
     31 H9         63.6788   30.4901   -2.8114 H         1 <0>         0.1150 
     32 H10        67.0118   29.9622   -5.5404 H         1 <0>         0.1150 
     33 H11        71.5473   33.0411   -0.3023 H         1 <0>         0.1150 
     34 H12        70.0974   31.3593    0.7430 H         1 <0>         0.1150 
     35 H13        69.3987   32.5947   -4.0181 H         1 <0>         0.1150 
     36 H14        68.4450   29.6645    0.4865 H         1 <0>         0.3600 
     37 H15        67.7394   29.3141   -1.0073 H         1 <0>         0.3600 
     38 H16        67.9890   30.4342   -4.0869 H         1 <0>         0.3000 
@<TRIPOS>BOND
     1    1    3 ar   
     2    1    4 ar   
     3    1   23 1    
     4    2    5 ar   
     5    2    6 ar   
     6    2   24 1    
     7    3    7 ar   
     8    3   25 1    
     9    4    8 ar   
    10    4   26 1    
    11    5    9 ar   
    12    5   27 1    
    13    6   10 ar   
    14    6   28 1    
    15    7   14 ar   
    16    7   29 1    
    17    8   14 ar   
    18    8   30 1    
    19    9   15 ar   
    20    9   31 1    
    21   10   15 ar   
    22   10   32 1    
    23   11   12 ar   
    24   11   16 ar   
    25   11   33 1    
    26   12   17 ar   
    27   12   34 1    
    28   13   16 ar   
    29   13   18 ar   
    30   13   35 1    
    31   14   16 1    
    32   15   19 1    
    33   17   18 ar   
    34   17   20 1    
    35   18   21 1    
    36   19   21 am   BACKBONE|DICT|INTERRES
    37   19   22 2    
    38   20   36 1    
    39   20   37 1    
    40   21   38 1    
@<TRIPOS>SUBSTRUCTURE
     1 <0>         1 GROUP             0       ****    0 ROOT    
@<TRIPOS>MOLECULE
hdac2-ligand
38   40    1
SMALL
USER_CHARGES


@<TRIPOS>ATOM
      1 C1         73.3270   36.3362   -2.9722 C.ar      1 <0>        -0.1150 
      2 C2         64.4917   30.1265   -6.5574 C.ar      1 <0>        -0.1150 
      3 C3         73.0910   36.1234   -1.6025 C.ar      1 <0>        -0.1150 
      4 C4         72.7744   35.4559   -3.9189 C.ar      1 <0>        -0.1150 
      5 C5         65.8831   29.9131   -6.5969 C.ar      1 <0>        -0.1150 
      6 C6         63.9282   30.8859   -5.5140 C.ar      1 <0>        -0.1150 
      7 C7         72.2987   35.0371   -1.1836 C.ar      1 <0>        -0.1150 
      8 C8         71.9874   34.3682   -3.4943 C.ar      1 <0>        -0.1150 
      9 C9         66.7100   30.4346   -5.5838 C.ar      1 <0>        -0.1150 
     10 C10        64.7576   31.4354   -4.5161 C.ar      1 <0>        -0.1150 
     11 C11        71.1165   32.3493   -0.4497 C.ar      1 <0>        -0.1150 
     12 C12        70.2962   31.2833   -0.0328 C.ar      1 <0>        -0.1150 
     13 C13        69.8132   32.5641   -2.4793 C.ar      1 <0>        -0.1150 
     14 C14        71.7313   34.1421   -2.1202 C.ar      1 <0>         0.0000 
     15 C15        66.1511   31.2028   -4.5381 C.ar      1 <0>        -0.1150 
     16 C16        70.8862   33.0114   -1.6779 C.ar      1 <0>         0.0000 
     17 C17        69.2383   30.8403   -0.8485 C.ar      1 <0>         0.1800 
     18 C18        68.9904   31.4876   -2.0810 C.ar      1 <0>         0.0850 
     19 C19        67.0352   31.8483   -3.5154 C.2       1 <0>         0.6150 
     20 N1         68.4429   29.7826   -0.4090 N.pl3     1 <0>        -0.9000 
     21 N2         67.9489   31.0468   -2.9392 N.am      1 <0>        -0.3850 
     22 O1         66.8639   33.0285   -3.2092 O.2       1 <0>        -0.5000 
     23 H1         73.9321   37.1705   -3.2956 H         1 <0>         0.1150 
     24 H2         63.8597   29.7205   -7.3335 H         1 <0>         0.1150 
     25 H3         73.5132   36.7968   -0.8712 H         1 <0>         0.1150 
     26 H4         72.9551   35.6127   -4.9721 H         1 <0>         0.1150 
     27 H5         66.3232   29.3601   -7.4122 H         1 <0>         0.1150 
     28 H6         62.8626   31.0605   -5.4890 H         1 <0>         0.1150 
     29 H7         72.1211   34.9042   -0.1271 H         1 <0>         0.1150 
     30 H8         71.5838   33.7034   -4.2434 H         1 <0>         0.1150 
     31 H9         67.7773   30.2722   -5.6379 H         1 <0>         0.1150 
     32 H10        64.3212   32.0403   -3.7338 H         1 <0>         0.1150 
     33 H11        71.9322   32.6525    0.1900 H         1 <0>         0.1150 
     34 H12        70.4906   30.8061    0.9171 H         1 <0>         0.1150 
     35 H13        69.6108   33.0563   -3.4192 H         1 <0>         0.1150 
     36 H14        68.6907   29.3332    0.4686 H         1 <0>         0.3600 
     37 H15        68.0848   29.1338   -1.1002 H         1 <0>         0.3600 
     38 H16        67.8902   30.0542   -3.1132 H         1 <0>         0.3000 
@<TRIPOS>BOND
     1    1    3 ar   
     2    1    4 ar   
     3    1   23 1    
     4    2    5 ar   
     5    2    6 ar   
     6    2   24 1    
     7    3    7 ar   
     8    3   25 1    
     9    4    8 ar   
    10    4   26 1    
    11    5    9 ar   
    12    5   27 1    
    13    6   10 ar   
    14    6   28 1    
    15    7   14 ar   
    16    7   29 1    
    17    8   14 ar   
    18    8   30 1    
    19    9   15 ar   
    20    9   31 1    
    21   10   15 ar   
    22   10   32 1    
    23   11   12 ar   
    24   11   16 ar   
    25   11   33 1    
    26   12   17 ar   
    27   12   34 1    
    28   13   16 ar   
    29   13   18 ar   
    30   13   35 1    
    31   14   16 1    
    32   15   19 1    
    33   17   18 ar   
    34   17   20 1    
    35   18   21 1    
    36   19   21 am   BACKBONE|DICT|INTERRES
    37   19   22 2    
    38   20   36 1    
    39   20   37 1    
    40   21   38 1    
@<TRIPOS>SUBSTRUCTURE
     1 <0>         1 GROUP             0       ****    0 ROOT    
@<TRIPOS>MOLECULE
hdac2-ligand
38   40    1
SMALL
USER_CHARGES


@<TRIPOS>ATOM
      1 C1         59.1121   29.7736   -3.1750 C.ar      1 <0>        -0.1150 
      2 C2         70.6816   31.9713   -0.7109 C.ar      1 <0>        -0.1150 
      3 C3         59.8438   30.9748   -3.2085 C.ar      1 <0>        -0.1150 
      4 C4         59.7116   28.5769   -3.6096 C.ar      1 <0>        -0.1150 
      5 C5         70.1321   32.5528   -1.8680 C.ar      1 <0>        -0.1150 
      6 C6         69.9598   30.9889   -0.0084 C.ar      1 <0>        -0.1150 
      7 C7         61.1737   30.9760   -3.6700 C.ar      1 <0>        -0.1150 
      8 C8         61.0393   28.5838   -4.0754 C.ar      1 <0>        -0.1150 
      9 C9         68.8628   32.1481   -2.3252 C.ar      1 <0>        -0.1150 
     10 C10        68.6906   30.5820   -0.4630 C.ar      1 <0>        -0.1150 
     11 C11        63.4607   29.3658   -5.9251 C.ar      1 <0>        -0.1150 
     12 C12        64.7825   29.3817   -6.4061 C.ar      1 <0>        -0.1150 
     13 C13        64.2298   30.2134   -3.7831 C.ar      1 <0>        -0.1150 
     14 C14        61.7850   29.7824   -4.1136 C.ar      1 <0>         0.0000 
     15 C15        68.1370   31.1484   -1.6333 C.ar      1 <0>        -0.1150 
     16 C16        63.1699   29.7856   -4.6103 C.ar      1 <0>         0.0000 
     17 C17        65.8391   29.7935   -5.5708 C.ar      1 <0>         0.1800 
     18 C18        65.5686   30.2042   -4.2436 C.ar      1 <0>         0.0850 
     19 C19        66.7827   30.7090   -2.1097 C.2       1 <0>         0.6150 
     20 N1         67.1445   29.7806   -6.0706 N.pl3     1 <0>        -0.9000 
     21 N2         66.6654   30.6353   -3.4477 N.am      1 <0>        -0.3850 
     22 O1         65.9023   30.4115   -1.3015 O.2       1 <0>        -0.5000 
     23 H1         58.0945   29.7642   -2.8099 H         1 <0>         0.1150 
     24 H2         71.6534   32.2815   -0.3556 H         1 <0>         0.1150 
     25 H3         59.3920   31.8948   -2.8672 H         1 <0>         0.1150 
     26 H4         59.1545   27.6515   -3.5790 H         1 <0>         0.1150 
     27 H5         70.6848   33.3109   -2.4042 H         1 <0>         0.1150 
     28 H6         70.3756   30.5588    0.8891 H         1 <0>         0.1150 
     29 H7         61.7248   31.9050   -3.6907 H         1 <0>         0.1150 
     30 H8         61.4877   27.6584   -4.4088 H         1 <0>         0.1150 
     31 H9         68.4580   32.6165   -3.2108 H         1 <0>         0.1150 
     32 H10        68.1527   29.8239    0.0894 H         1 <0>         0.1150 
     33 H11        62.6635   29.0363   -6.5748 H         1 <0>         0.1150 
     34 H12        64.9779   29.0674   -7.4212 H         1 <0>         0.1150 
     35 H13        63.9887   30.5549   -2.7893 H         1 <0>         0.1150 
     36 H14        67.3128   29.2682   -6.9254 H         1 <0>         0.3600 
     37 H15        67.9176   29.6979   -5.4275 H         1 <0>         0.3600 
     38 H16        67.5024   30.8522   -3.9672 H         1 <0>         0.3000 
@<TRIPOS>BOND
     1    1    3 ar   
     2    1    4 ar   
     3    1   23 1    
     4    2    5 ar   
     5    2    6 ar   
     6    2   24 1    
     7    3    7 ar   
     8    3   25 1    
     9    4    8 ar   
    10    4   26 1    
    11    5    9 ar   
    12    5   27 1    
    13    6   10 ar   
    14    6   28 1    
    15    7   14 ar   
    16    7   29 1    
    17    8   14 ar   
    18    8   30 1    
    19    9   15 ar   
    20    9   31 1    
    21   10   15 ar   
    22   10   32 1    
    23   11   12 ar   
    24   11   16 ar   
    25   11   33 1    
    26   12   17 ar   
    27   12   34 1    
    28   13   16 ar   
    29   13   18 ar   
    30   13   35 1    
    31   14   16 1    
    32   15   19 1    
    33   17   18 ar   
    34   17   20 1    
    35   18   21 1    
    36   19   21 am   BACKBONE|DICT|INTERRES
    37   19   22 2    
    38   20   36 1    
    39   20   37 1    
    40   21   38 1    
@<TRIPOS>SUBSTRUCTURE
     1 <0>         1 GROUP             0       ****    0 ROOT    
@<TRIPOS>MOLECULE
hdac2-ligand
38   40    1
SMALL
USER_CHARGES


@<TRIPOS>ATOM
      1 C1         73.7855   33.0680   -0.3522 C.ar      1 <0>        -0.1150 
      2 C2         65.1384   32.8849   -8.2662 C.ar      1 <0>        -0.1150 
      3 C3         72.8043   33.8943   -0.9307 C.ar      1 <0>        -0.1150 
      4 C4         73.4843   31.7263   -0.0580 C.ar      1 <0>        -0.1150 
      5 C5         65.0238   33.9446   -7.3459 C.ar      1 <0>        -0.1150 
      6 C6         65.5667   31.6181   -7.8253 C.ar      1 <0>        -0.1150 
      7 C7         71.5236   33.3789   -1.2095 C.ar      1 <0>        -0.1150 
      8 C8         72.2021   31.2160   -0.3383 C.ar      1 <0>        -0.1150 
      9 C9         65.3303   33.7384   -5.9856 C.ar      1 <0>        -0.1150 
     10 C10        65.8918   31.4151   -6.4689 C.ar      1 <0>        -0.1150 
     11 C11        69.1955   30.7285   -0.1949 C.ar      1 <0>        -0.1150 
     12 C12        67.8904   30.2551   -0.4094 C.ar      1 <0>        -0.1150 
     13 C13        69.1680   31.7903   -2.3745 C.ar      1 <0>        -0.1150 
     14 C14        71.2031   32.0350   -0.9124 C.ar      1 <0>         0.0000 
     15 C15        65.7825   32.4765   -5.5408 C.ar      1 <0>        -0.1150 
     16 C16        69.8491   31.5116   -1.1679 C.ar      1 <0>         0.0000 
     17 C17        67.1969   30.5736   -1.5937 C.ar      1 <0>         0.1800 
     18 C18        67.8473   31.3419   -2.5946 C.ar      1 <0>         0.0850 
     19 C19        66.1040   32.2617   -4.0908 C.2       1 <0>         0.6150 
     20 N1         65.8914   30.0972   -1.7438 N.pl3     1 <0>        -0.9000 
     21 N2         67.2640   31.6249   -3.8588 N.am      1 <0>        -0.3850 
     22 O1         65.3493   32.6745   -3.2089 O.2       1 <0>        -0.5000 
     23 H1         74.7679   33.4596   -0.1319 H         1 <0>         0.1150 
     24 H2         64.8948   33.0445   -9.3069 H         1 <0>         0.1150 
     25 H3         73.0331   34.9252   -1.1564 H         1 <0>         0.1150 
     26 H4         74.2370   31.0900    0.3869 H         1 <0>         0.1150 
     27 H5         64.6959   34.9165   -7.6835 H         1 <0>         0.1150 
     28 H6         65.6495   30.7993   -8.5248 H         1 <0>         0.1150 
     29 H7         70.7770   34.0302   -1.6396 H         1 <0>         0.1150 
     30 H8         71.9905   30.1825   -0.1108 H         1 <0>         0.1150 
     31 H9         65.2350   34.5575   -5.2865 H         1 <0>         0.1150 
     32 H10        66.2165   30.4361   -6.1458 H         1 <0>         0.1150 
     33 H11        69.6887   30.4981    0.7389 H         1 <0>         0.1150 
     34 H12        67.4207   29.6576    0.3585 H         1 <0>         0.1150 
     35 H13        69.6661   32.3672   -3.1404 H         1 <0>         0.1150 
     36 H14        65.4066   29.7822   -0.9163 H         1 <0>         0.3600 
     37 H15        65.3059   30.5898   -2.4071 H         1 <0>         0.3600 
     38 H16        67.8483   31.4613   -4.6648 H         1 <0>         0.3000 
@<TRIPOS>BOND
     1    1    3 ar   
     2    1    4 ar   
     3    1   23 1    
     4    2    5 ar   
     5    2    6 ar   
     6    2   24 1    
     7    3    7 ar   
     8    3   25 1    
     9    4    8 ar   
    10    4   26 1    
    11    5    9 ar   
    12    5   27 1    
    13    6   10 ar   
    14    6   28 1    
    15    7   14 ar   
    16    7   29 1    
    17    8   14 ar   
    18    8   30 1    
    19    9   15 ar   
    20    9   31 1    
    21   10   15 ar   
    22   10   32 1    
    23   11   12 ar   
    24   11   16 ar   
    25   11   33 1    
    26   12   17 ar   
    27   12   34 1    
    28   13   16 ar   
    29   13   18 ar   
    30   13   35 1    
    31   14   16 1    
    32   15   19 1    
    33   17   18 ar   
    34   17   20 1    
    35   18   21 1    
    36   19   21 am   BACKBONE|DICT|INTERRES
    37   19   22 2    
    38   20   36 1    
    39   20   37 1    
    40   21   38 1    
@<TRIPOS>SUBSTRUCTURE
     1 <0>         1 GROUP             0       ****    0 ROOT    
@<TRIPOS>MOLECULE
hdac2-ligand
38   40    1
SMALL
USER_CHARGES


@<TRIPOS>ATOM
      1 C1         57.3105   24.5715   -3.6021 C.ar      1 <0>        -0.1150 
      2 C2         65.5626   32.1000   -7.3124 C.ar      1 <0>        -0.1150 
      3 C3         56.3366   25.5864   -3.6110 C.ar      1 <0>        -0.1150 
      4 C4         58.6747   24.9144   -3.5967 C.ar      1 <0>        -0.1150 
      5 C5         65.5803   32.7478   -6.0629 C.ar      1 <0>        -0.1150 
      6 C6         64.5197   31.2083   -7.6259 C.ar      1 <0>        -0.1150 
      7 C7         56.7282   26.9392   -3.6146 C.ar      1 <0>        -0.1150 
      8 C8         59.0612   26.2688   -3.5997 C.ar      1 <0>        -0.1150 
      9 C9         64.5533   32.5085   -5.1287 C.ar      1 <0>        -0.1150 
     10 C10        63.4925   30.9681   -6.6925 C.ar      1 <0>        -0.1150 
     11 C11        57.7477   29.6948   -2.9207 C.ar      1 <0>        -0.1150 
     12 C12        58.1394   31.0459   -2.9175 C.ar      1 <0>        -0.1150 
     13 C13        59.6603   29.1412   -4.3056 C.ar      1 <0>        -0.1150 
     14 C14        58.0953   27.3020   -3.6089 C.ar      1 <0>         0.0000 
     15 C15        63.4934   31.6238   -5.4406 C.ar      1 <0>        -0.1150 
     16 C16        58.5021   28.7220   -3.6126 C.ar      1 <0>         0.0000 
     17 C17        59.2916   31.4533   -3.6155 C.ar      1 <0>         0.1800 
     18 C18        60.0574   30.5000   -4.3257 C.ar      1 <0>         0.0850 
     19 C19        62.4006   31.3436   -4.4479 C.2       1 <0>         0.6150 
     20 N1         59.6506   32.8030   -3.5998 N.pl3     1 <0>        -0.9000 
     21 N2         61.2372   30.9383   -4.9885 N.am      1 <0>        -0.3850 
     22 O1         62.6227   31.4146   -3.2390 O.2       1 <0>        -0.5000 
     23 H1         57.0120   23.5334   -3.5998 H         1 <0>         0.1150 
     24 H2         66.3511   32.2826   -8.0277 H         1 <0>         0.1150 
     25 H3         55.2877   25.3286   -3.6138 H         1 <0>         0.1150 
     26 H4         59.4262   24.1387   -3.5920 H         1 <0>         0.1150 
     27 H5         66.3851   33.4256   -5.8185 H         1 <0>         0.1150 
     28 H6         64.5080   30.7057   -8.5819 H         1 <0>         0.1150 
     29 H7         55.9644   27.7034   -3.6143 H         1 <0>         0.1150 
     30 H8         60.1139   26.5107   -3.6037 H         1 <0>         0.1150 
     31 H9         64.5941   33.0063   -4.1706 H         1 <0>         0.1150 
     32 H10        62.6999   30.2783   -6.9457 H         1 <0>         0.1150 
     33 H11        56.8537   29.4091   -2.3862 H         1 <0>         0.1150 
     34 H12        57.5451   31.7687   -2.3776 H         1 <0>         0.1150 
     35 H13        60.2577   28.3955   -4.8077 H         1 <0>         0.1150 
     36 H14        58.9892   33.4776   -3.2426 H         1 <0>         0.3600 
     37 H15        60.2739   33.1533   -4.3121 H         1 <0>         0.3600 
     38 H16        61.2118   30.8823   -5.9952 H         1 <0>         0.3000 
@<TRIPOS>BOND
     1    1    3 ar   
     2    1    4 ar   
     3    1   23 1    
     4    2    5 ar   
     5    2    6 ar   
     6    2   24 1    
     7    3    7 ar   
     8    3   25 1    
     9    4    8 ar   
    10    4   26 1    
    11    5    9 ar   
    12    5   27 1    
    13    6   10 ar   
    14    6   28 1    
    15    7   14 ar   
    16    7   29 1    
    17    8   14 ar   
    18    8   30 1    
    19    9   15 ar   
    20    9   31 1    
    21   10   15 ar   
    22   10   32 1    
    23   11   12 ar   
    24   11   16 ar   
    25   11   33 1    
    26   12   17 ar   
    27   12   34 1    
    28   13   16 ar   
    29   13   18 ar   
    30   13   35 1    
    31   14   16 1    
    32   15   19 1    
    33   17   18 ar   
    34   17   20 1    
    35   18   21 1    
    36   19   21 am   BACKBONE|DICT|INTERRES
    37   19   22 2    
    38   20   36 1    
    39   20   37 1    
    40   21   38 1    
@<TRIPOS>SUBSTRUCTURE
     1 <0>         1 GROUP             0       ****    0 ROOT    
@<TRIPOS>MOLECULE
hdac2-ligand
38   40    1
SMALL
USER_CHARGES


@<TRIPOS>ATOM
      1 C1         56.8962   24.2276   -3.6094 C.ar      1 <0>        -0.1150 
      2 C2         65.6907   30.4850   -6.9470 C.ar      1 <0>        -0.1150 
      3 C3         55.9562   25.2710   -3.6738 C.ar      1 <0>        -0.1150 
      4 C4         58.2674   24.5316   -3.5617 C.ar      1 <0>        -0.1150 
      5 C5         65.9161   30.3289   -5.5663 C.ar      1 <0>        -0.1150 
      6 C6         64.3788   30.4336   -7.4530 C.ar      1 <0>        -0.1150 
      7 C7         56.3879   26.6121   -3.6765 C.ar      1 <0>        -0.1150 
      8 C8         58.6919   25.8728   -3.5600 C.ar      1 <0>        -0.1150 
      9 C9         64.8302   30.1259   -4.6915 C.ar      1 <0>        -0.1150 
     10 C10        63.2929   30.2251   -6.5804 C.ar      1 <0>        -0.1150 
     11 C11        57.3899   29.3807   -3.0574 C.ar      1 <0>        -0.1150 
     12 C12        57.8110   30.7239   -3.0513 C.ar      1 <0>        -0.1150 
     13 C13        59.5051   28.7190   -4.0266 C.ar      1 <0>        -0.1150 
     14 C14        57.7639   26.9416   -3.6089 C.ar      1 <0>         0.0000 
     15 C15        63.5087   30.0794   -5.1894 C.ar      1 <0>        -0.1150 
     16 C16        58.2181   28.3536   -3.5700 C.ar      1 <0>         0.0000 
     17 C17        59.0710   31.0775   -3.5646 C.ar      1 <0>         0.1800 
     18 C18        59.9379   30.0641   -4.0257 C.ar      1 <0>         0.0850 
     19 C19        62.3626   29.8010   -4.2590 C.2       1 <0>         0.6150 
     20 N1         59.4349   32.4238   -3.6089 N.pl3     1 <0>        -0.9000 
     21 N2         61.2005   30.3965   -4.5757 N.am      1 <0>        -0.3850 
     22 O1         62.5301   29.1382   -3.2325 O.2       1 <0>        -0.5000 
     23 H1         56.5691   23.1983   -3.6180 H         1 <0>         0.1150 
     24 H2         66.5254   30.6367   -7.6157 H         1 <0>         0.1150 
     25 H3         54.9017   25.0440   -3.7235 H         1 <0>         0.1150 
     26 H4         58.9997   23.7383   -3.5267 H         1 <0>         0.1150 
     27 H5         66.9242   30.3608   -5.1784 H         1 <0>         0.1150 
     28 H6         64.2033   30.5439   -8.5124 H         1 <0>         0.1150 
     29 H7         55.6391   27.3876   -3.7277 H         1 <0>         0.1150 
     30 H8         59.7535   26.0631   -3.5044 H         1 <0>         0.1150 
     31 H9         65.0194   29.9997   -3.6356 H         1 <0>         0.1150 
     32 H10        62.2975   30.1636   -6.9961 H         1 <0>         0.1150 
     33 H11        56.4161   29.1450   -2.6543 H         1 <0>         0.1150 
     34 H12        57.1489   31.4865   -2.6699 H         1 <0>         0.1150 
     35 H13        60.1638   27.9645   -4.4329 H         1 <0>         0.1150 
     36 H14        58.9931   33.0445   -2.9444 H         1 <0>         0.3600 
     37 H15        60.4072   32.6502   -3.7612 H         1 <0>         0.3600 
     38 H16        61.2050   31.0922   -5.3064 H         1 <0>         0.3000 
@<TRIPOS>BOND
     1    1    3 ar   
     2    1    4 ar   
     3    1   23 1    
     4    2    5 ar   
     5    2    6 ar   
     6    2   24 1    
     7    3    7 ar   
     8    3   25 1    
     9    4    8 ar   
    10    4   26 1    
    11    5    9 ar   
    12    5   27 1    
    13    6   10 ar   
    14    6   28 1    
    15    7   14 ar   
    16    7   29 1    
    17    8   14 ar   
    18    8   30 1    
    19    9   15 ar   
    20    9   31 1    
    21   10   15 ar   
    22   10   32 1    
    23   11   12 ar   
    24   11   16 ar   
    25   11   33 1    
    26   12   17 ar   
    27   12   34 1    
    28   13   16 ar   
    29   13   18 ar   
    30   13   35 1    
    31   14   16 1    
    32   15   19 1    
    33   17   18 ar   
    34   17   20 1    
    35   18   21 1    
    36   19   21 am   BACKBONE|DICT|INTERRES
    37   19   22 2    
    38   20   36 1    
    39   20   37 1    
    40   21   38 1    
@<TRIPOS>SUBSTRUCTURE
     1 <0>         1 GROUP             0       ****    0 ROOT    
