@<TRIPOS>MOLECULE
hdac8-ligand
39   40    1
SMALL
USER_CHARGES


@<TRIPOS>ATOM
      1 C1        -30.0704   23.4244  -48.0412 C.3       1 <0>         0.0313 
      2 C2        -29.3378   27.5094  -40.7090 C.ar      1 <0>        -0.1150 
      3 C3        -29.8219   26.2244  -40.3967 C.ar      1 <0>        -0.1150 
      4 C4        -28.2789   27.6610  -41.6241 C.ar      1 <0>        -0.1150 
      5 C5        -29.2458   25.0891  -40.9996 C.ar      1 <0>        -0.1150 
      6 C6        -27.7012   26.5273  -42.2262 C.ar      1 <0>        -0.1150 
      7 C7        -29.7735   24.9955  -44.7765 C.ar      1 <0>        -0.1490 
      8 C8        -29.2670   23.0290  -45.7178 C.ar      1 <0>        -0.1630 
      9 C9        -30.9138   26.1770  -46.7838 C.3       1 <0>         0.0350 
     10 C10       -32.2829   25.8244  -47.4082 C.3       1 <0>        -0.1200 
     11 C11       -27.5290   24.0251  -42.5551 C.3       1 <0>        -0.0050 
     12 C12       -28.1834   25.2377  -41.9178 C.ar      1 <0>        -0.1150 
     13 C13       -29.1375   23.7388  -44.5593 C.ar      1 <0>        -0.1460 
     14 C14       -30.2219   25.0448  -46.0703 C.ar      1 <0>        -0.1630 
     15 C15       -32.9189   26.8722  -48.3244 C.2       1 <0>         0.5000 
     16 C16       -28.4738   23.1421  -43.3776 C.2       1 <0>         0.5850 
     17 N1        -34.1687   26.6598  -48.7450 N.am      1 <0>        -0.2244 
     18 N2        -29.8678   23.8347  -46.6669 N.pl3     1 <0>        -0.1333 
     19 O1        -34.5735   27.4443  -49.8490 O.3       1 <0>        -0.4375 
     20 O2        -32.2612   27.8242  -48.7209 O.2       1 <0>        -0.5000 
     21 O3        -28.5735   21.9444  -43.1089 O.2       1 <0>        -0.4700 
     22 H1        -29.3574   22.6449  -48.3090 H         1 <0>         0.0600 
     23 H2        -31.0754   23.0244  -48.1572 H         1 <0>         0.0600 
     24 H3        -29.9271   24.2631  -48.7192 H         1 <0>         0.0600 
     25 H4        -29.7735   28.3796  -40.2407 H         1 <0>         0.1150 
     26 H5        -30.6297   26.1122  -39.6884 H         1 <0>         0.1150 
     27 H6        -27.9078   28.6470  -41.8627 H         1 <0>         0.1150 
     28 H7        -29.6143   24.1054  -40.7485 H         1 <0>         0.1150 
     29 H8        -26.8832   26.6507  -42.9218 H         1 <0>         0.1150 
     30 H9        -29.8821   25.7969  -44.0602 H         1 <0>         0.1180 
     31 H10       -28.9456   22.0271  -45.9612 H         1 <0>         0.1550 
     32 H11       -31.0791   26.9715  -46.0567 H         1 <0>         0.0600 
     33 H12       -30.2321   26.5937  -47.5209 H         1 <0>         0.0600 
     34 H13       -32.1735   24.9568  -48.0449 H         1 <0>         0.0600 
     35 H14       -32.9735   25.5762  -46.6078 H         1 <0>         0.0600 
     36 H15       -26.7117   24.3480  -43.2007 H         1 <0>         0.0600 
     37 H16       -27.0779   23.4224  -41.7662 H         1 <0>         0.0600 
     38 H17       -34.7316   25.8244  -48.6675 H         1 <0>         0.3000 
     39 H18       -35.5120   27.3022  -49.8781 H         1 <0>         0.3619 
@<TRIPOS>BOND
     1    1   18 1    
     2    1   22 1    
     3    1   23 1    
     4    1   24 1    
     5    2    3 ar   
     6    2    4 ar   
     7    2   25 1    
     8    3    5 ar   
     9    3   26 1    
    10    4    6 ar   
    11    4   27 1    
    12    5   12 ar   
    13    5   28 1    
    14    6   12 ar   
    15    6   29 1    
    16    7   13 ar   
    17    7   14 ar   
    18    7   30 1    
    19    8   13 ar   
    20    8   18 ar   
    21    8   31 1    
    22    9   10 1    
    23    9   14 1    
    24    9   32 1    
    25    9   33 1    
    26   10   15 1    
    27   10   34 1    
    28   10   35 1    
    29   11   12 1    
    30   11   16 1    
    31   11   36 1    
    32   11   37 1    
    33   13   16 1    
    34   14   18 ar   
    35   15   17 am   BACKBONE|DICT|INTERRES
    36   15   20 2    
    37   16   21 2    
    38   17   19 1    
    39   17   38 1    
    40   19   39 1    
@<TRIPOS>SUBSTRUCTURE
     1 <0>         1 GROUP             0       ****    0 ROOT    
@<TRIPOS>MOLECULE
hdac8-ligand
39   40    1
SMALL
USER_CHARGES


@<TRIPOS>ATOM
      1 C1        -30.1940   23.1985  -47.6162 C.3       1 <0>         0.0313 
      2 C2        -29.3833   27.0780  -40.3356 C.ar      1 <0>        -0.1150 
      3 C3        -28.1549   27.0829  -41.0224 C.ar      1 <0>        -0.1150 
      4 C4        -30.1040   25.8772  -40.1858 C.ar      1 <0>        -0.1150 
      5 C5        -27.6427   25.8847  -41.5547 C.ar      1 <0>        -0.1150 
      6 C6        -29.5945   24.6778  -40.7209 C.ar      1 <0>        -0.1150 
      7 C7        -29.5770   24.6659  -44.3515 C.ar      1 <0>        -0.1490 
      8 C8        -29.4503   22.6342  -45.2867 C.ar      1 <0>        -0.1630 
      9 C9        -30.5106   26.0008  -46.3506 C.3       1 <0>         0.0350 
     10 C10       -32.0519   26.0858  -46.4387 C.3       1 <0>        -0.1200 
     11 C11       -27.7735   23.3950  -41.9681 C.3       1 <0>        -0.0050 
     12 C12       -28.3604   24.6786  -41.4083 C.ar      1 <0>        -0.1150 
     13 C13       -29.2010   23.3126  -44.1257 C.ar      1 <0>        -0.1460 
     14 C14       -30.0121   24.7846  -45.6395 C.ar      1 <0>        -0.1630 
     15 C15       -32.5549   26.2244  -47.8760 C.2       1 <0>         0.5000 
     16 C16       -28.6898   22.6207  -42.9228 C.2       1 <0>         0.5850 
     17 N1        -33.3735   27.2377  -48.1612 N.am      1 <0>        -0.2244 
     18 N2        -29.8988   23.5349  -46.2367 N.pl3     1 <0>        -0.1333 
     19 O1        -33.4510   27.6130  -49.5209 O.3       1 <0>        -0.4375 
     20 O2        -32.1735   25.4244  -48.7209 O.2       1 <0>        -0.5000 
     21 O3        -28.9002   21.4244  -42.7209 O.2       1 <0>        -0.4700 
     22 H1        -29.7735   22.2244  -47.8629 H         1 <0>         0.0600 
     23 H2        -31.2712   23.1654  -47.7703 H         1 <0>         0.0600 
     24 H3        -29.7562   23.9373  -48.2873 H         1 <0>         0.0600 
     25 H4        -29.7735   27.9960  -39.9209 H         1 <0>         0.1150 
     26 H5        -27.6017   28.0037  -41.1351 H         1 <0>         0.1150 
     27 H6        -31.0440   25.8790  -39.6542 H         1 <0>         0.1150 
     28 H7        -26.6939   25.8940  -42.0725 H         1 <0>         0.1150 
     29 H8        -30.1501   23.7597  -40.5979 H         1 <0>         0.1150 
     30 H9        -29.5441   25.4827  -43.6465 H         1 <0>         0.1180 
     31 H10       -29.3224   21.5884  -45.5250 H         1 <0>         0.1550 
     32 H11       -30.1484   26.8743  -45.8088 H         1 <0>         0.0600 
     33 H12       -30.0307   26.0679  -47.3259 H         1 <0>         0.0600 
     34 H13       -32.4950   25.1783  -46.0294 H         1 <0>         0.0600 
     35 H14       -32.4255   26.9004  -45.8172 H         1 <0>         0.0600 
     36 H15       -26.8444   23.6170  -42.4938 H         1 <0>         0.0600 
     37 H16       -27.5065   22.7473  -41.1321 H         1 <0>         0.0600 
     38 H17       -33.6064   28.0121  -47.5532 H         1 <0>         0.3000 
     39 H18       -34.2435   28.1295  -49.5632 H         1 <0>         0.3619 
@<TRIPOS>BOND
     1    1   18 1    
     2    1   22 1    
     3    1   23 1    
     4    1   24 1    
     5    2    3 ar   
     6    2    4 ar   
     7    2   25 1    
     8    3    5 ar   
     9    3   26 1    
    10    4    6 ar   
    11    4   27 1    
    12    5   12 ar   
    13    5   28 1    
    14    6   12 ar   
    15    6   29 1    
    16    7   13 ar   
    17    7   14 ar   
    18    7   30 1    
    19    8   13 ar   
    20    8   18 ar   
    21    8   31 1    
    22    9   10 1    
    23    9   14 1    
    24    9   32 1    
    25    9   33 1    
    26   10   15 1    
    27   10   34 1    
    28   10   35 1    
    29   11   12 1    
    30   11   16 1    
    31   11   36 1    
    32   11   37 1    
    33   13   16 1    
    34   14   18 ar   
    35   15   17 am   BACKBONE|DICT|INTERRES
    36   15   20 2    
    37   16   21 2    
    38   17   19 1    
    39   17   38 1    
    40   19   39 1    
@<TRIPOS>SUBSTRUCTURE
     1 <0>         1 GROUP             0       ****    0 ROOT    
@<TRIPOS>MOLECULE
hdac8-ligand
39   40    1
SMALL
USER_CHARGES


@<TRIPOS>ATOM
      1 C1        -30.2030   23.1953  -47.6528 C.3       1 <0>         0.0313 
      2 C2        -29.3886   27.0719  -40.3408 C.ar      1 <0>        -0.1150 
      3 C3        -30.1048   25.8702  -40.1779 C.ar      1 <0>        -0.1150 
      4 C4        -28.1716   27.0781  -41.0476 C.ar      1 <0>        -0.1150 
      5 C5        -29.6025   24.6713  -40.7209 C.ar      1 <0>        -0.1150 
      6 C6        -27.6667   25.8804  -41.5881 C.ar      1 <0>        -0.1150 
      7 C7        -29.5884   24.6704  -44.3910 C.ar      1 <0>        -0.1490 
      8 C8        -29.4869   22.6326  -45.3147 C.ar      1 <0>        -0.1630 
      9 C9        -30.4811   26.0151  -46.4030 C.3       1 <0>         0.0350 
     10 C10       -32.0207   26.1572  -46.4583 C.3       1 <0>        -0.1200 
     11 C11       -27.8036   23.3905  -42.0011 C.3       1 <0>        -0.0050 
     12 C12       -28.3808   24.6736  -41.4302 C.ar      1 <0>        -0.1150 
     13 C13       -29.2337   23.3129  -44.1555 C.ar      1 <0>        -0.1460 
     14 C14       -30.0109   24.7908  -45.6835 C.ar      1 <0>        -0.1630 
     15 C15       -32.5735   26.2244  -47.8837 C.2       1 <0>         0.5000 
     16 C16       -28.7370   22.6226  -42.9447 C.2       1 <0>         0.5850 
     17 N1        -33.5038   27.1364  -48.1598 N.am      1 <0>        -0.2244 
     18 N2        -29.9140   23.5356  -46.2729 N.pl3     1 <0>        -0.1333 
     19 O1        -33.6255   27.4994  -49.5209 O.3       1 <0>        -0.4375 
     20 O2        -32.1735   25.4244  -48.7209 O.2       1 <0>        -0.5000 
     21 O3        -28.9734   21.4341  -42.7263 O.2       1 <0>        -0.4700 
     22 H1        -29.7736   22.2246  -47.8972 H         1 <0>         0.0600 
     23 H2        -31.2796   23.1523  -47.8098 H         1 <0>         0.0600 
     24 H3        -29.7691   23.9357  -48.3244 H         1 <0>         0.0600 
     25 H4        -29.7735   27.9898  -39.9210 H         1 <0>         0.1150 
     26 H5        -31.0357   25.8709  -39.6305 H         1 <0>         0.1150 
     27 H6        -27.6217   27.9996  -41.1700 H         1 <0>         0.1150 
     28 H7        -30.1548   23.7525  -40.5884 H         1 <0>         0.1150 
     29 H8        -26.7266   25.8909  -42.1217 H         1 <0>         0.1150 
     30 H9        -29.5467   25.4895  -43.6889 H         1 <0>         0.1180 
     31 H10       -29.3733   21.5839  -45.5480 H         1 <0>         0.1550 
     32 H11       -30.0747   26.8811  -45.8807 H         1 <0>         0.0600 
     33 H12       -30.0205   26.0547  -47.3889 H         1 <0>         0.0600 
     34 H13       -32.4870   25.3007  -45.9720 H         1 <0>         0.0600 
     35 H14       -32.3432   27.0244  -45.8825 H         1 <0>         0.0600 
     36 H15       -26.8815   23.6119  -42.5393 H         1 <0>         0.0600 
     37 H16       -27.5268   22.7397  -41.1708 H         1 <0>         0.0600 
     38 H17       -33.7734   27.9031  -47.5571 H         1 <0>         0.3000 
     39 H18       -34.4738   27.9183  -49.5647 H         1 <0>         0.3619 
@<TRIPOS>BOND
     1    1   18 1    
     2    1   22 1    
     3    1   23 1    
     4    1   24 1    
     5    2    3 ar   
     6    2    4 ar   
     7    2   25 1    
     8    3    5 ar   
     9    3   26 1    
    10    4    6 ar   
    11    4   27 1    
    12    5   12 ar   
    13    5   28 1    
    14    6   12 ar   
    15    6   29 1    
    16    7   13 ar   
    17    7   14 ar   
    18    7   30 1    
    19    8   13 ar   
    20    8   18 ar   
    21    8   31 1    
    22    9   10 1    
    23    9   14 1    
    24    9   32 1    
    25    9   33 1    
    26   10   15 1    
    27   10   34 1    
    28   10   35 1    
    29   11   12 1    
    30   11   16 1    
    31   11   36 1    
    32   11   37 1    
    33   13   16 1    
    34   14   18 ar   
    35   15   17 am   BACKBONE|DICT|INTERRES
    36   15   20 2    
    37   16   21 2    
    38   17   19 1    
    39   17   38 1    
    40   19   39 1    
@<TRIPOS>SUBSTRUCTURE
     1 <0>         1 GROUP             0       ****    0 ROOT    
