@<TRIPOS>MOLECULE
hivint-ligand
35   38    1
SMALL
USER_CHARGES


@<TRIPOS>ATOM
      1 C1          6.9568  -30.3427   -9.0037 C.ar      1 <0>        -0.1150 
      2 C2          9.6253  -27.3059  -12.1650 C.ar      1 <0>        -0.1150 
      3 C3          7.8566  -29.3293   -9.4032 C.ar      1 <0>        -0.1150 
      4 C4         10.0738  -27.2254  -13.4939 C.ar      1 <0>        -0.1150 
      5 C5          5.1758  -28.6861   -8.6567 C.ar      1 <0>        -0.1150 
      6 C6          5.8446  -26.2099   -9.1516 C.3       1 <0>        -0.0050 
      7 C7         12.4516  -24.8987  -14.7766 C.3       1 <0>         0.2000 
      8 C8          9.5498  -26.7081   -9.7468 C.3       1 <0>         0.0650 
      9 C9          5.6276  -30.0240   -8.6328 C.ar      1 <0>         0.1800 
     10 C10        10.0652  -26.4077  -11.1590 C.ar      1 <0>        -0.1150 
     11 C11         7.3981  -27.9973   -9.3786 C.ar      1 <0>        -0.0383 
     12 C12        10.9844  -26.2138  -13.8046 C.ar      1 <0>         0.0850 
     13 C13         6.0870  -27.6891   -9.0388 C.ar      1 <0>        -0.1150 
     14 C14        10.9674  -25.3432  -11.5094 C.ar      1 <0>        -0.1150 
     15 C15        11.4069  -25.3002  -12.8600 C.ar      1 <0>         0.0850 
     16 C16         7.2611  -25.7542   -9.5274 C.2       1 <0>         0.5000 
     17 C17        11.4619  -24.2904  -10.5432 C.2       1 <0>         0.7150 
     18 N1          8.0959  -26.8070   -9.6433 N.am      1 <0>        -0.0317 
     19 O1         11.9227  -23.2251  -11.0032 O.co2     1 <0>        -0.8000 
     20 O2          7.5656  -24.5692   -9.6552 O.2       1 <0>        -0.5000 
     21 O3         11.4469  -24.4764   -9.3119 O.co2     1 <0>        -0.8000 
     22 O4         11.5822  -25.9718  -14.9974 O.3       1 <0>        -0.2850 
     23 O5         12.2915  -24.4482  -13.4572 O.3       1 <0>        -0.2850 
     24 Cl1         4.5449  -31.2786   -8.1612 Cl        1 <0>        -0.1800 
     25 H1          7.2883  -31.3700   -8.9841 H         1 <0>         0.1150 
     26 H2          8.9656  -28.1173  -11.9023 H         1 <0>         0.1150 
     27 H3          8.8700  -29.5763   -9.6822 H         1 <0>         0.1150 
     28 H4          9.7503  -27.9423  -14.2325 H         1 <0>         0.1150 
     29 H5          4.1608  -28.4305   -8.3913 H         1 <0>         0.1150 
     30 H6          5.5276  -25.7805   -8.2035 H         1 <0>         0.0600 
     31 H7          5.1252  -25.9744   -9.9367 H         1 <0>         0.0600 
     32 H8         12.2302  -24.0940  -15.4787 H         1 <0>         0.1000 
     33 H9         13.4806  -25.2332  -14.9224 H         1 <0>         0.1000 
     34 H10        10.0108  -27.6438   -9.4315 H         1 <0>         0.0600 
     35 H11         9.8380  -26.0052   -8.9771 H         1 <0>         0.0600 
@<TRIPOS>BOND
     1    1    3 ar   
     2    1    9 ar   
     3    1   25 1    
     4    2    4 ar   
     5    2   10 ar   
     6    2   26 1    
     7    3   11 ar   
     8    3   27 1    
     9    4   12 ar   
    10    4   28 1    
    11    5    9 ar   
    12    5   13 ar   
    13    5   29 1    
    14    6   13 1    
    15    6   16 1    
    16    6   30 1    
    17    6   31 1    
    18    7   22 1    
    19    7   23 1    
    20    7   32 1    
    21    7   33 1    
    22    8   10 1    
    23    8   18 1    
    24    8   34 1    
    25    8   35 1    
    26    9   24 1    
    27   10   14 ar   
    28   11   13 ar   
    29   11   18 1    
    30   12   15 ar   
    31   12   22 1    
    32   14   15 ar   
    33   14   17 1    
    34   15   23 1    
    35   16   18 am   BACKBONE|DICT|INTERRES
    36   16   20 2    
    37   17   19 1    
    38   17   21 2    
@<TRIPOS>SUBSTRUCTURE
     1 <0>         1 GROUP             0       ****    0 ROOT    
@<TRIPOS>MOLECULE
hivint-ligand
35   38    1
SMALL
USER_CHARGES


@<TRIPOS>ATOM
      1 C1          7.9721  -27.9396   -9.3879 C.ar      1 <0>        -0.1150 
      2 C2         10.9435  -26.5430  -12.8645 C.ar      1 <0>        -0.1150 
      3 C3          9.1403  -27.2706   -9.8087 C.ar      1 <0>        -0.1150 
      4 C4         11.1605  -26.9042  -14.2031 C.ar      1 <0>        -0.1150 
      5 C5          6.7143  -25.8277   -9.3795 C.ar      1 <0>        -0.1150 
      6 C6          8.0737  -23.7241  -10.1632 C.3       1 <0>        -0.0050 
      7 C7         13.8155  -25.7514  -16.2970 C.3       1 <0>         0.2000 
      8 C8         11.4475  -25.3749  -10.7113 C.3       1 <0>         0.0650 
      9 C9          6.7727  -27.2216   -9.1572 C.ar      1 <0>         0.1800 
     10 C10        11.7883  -25.6214  -12.1858 C.ar      1 <0>        -0.1150 
     11 C11         9.0614  -25.8827  -10.0273 C.ar      1 <0>        -0.0383 
     12 C12        12.2547  -26.3320  -14.8582 C.ar      1 <0>         0.0850 
     13 C13         7.8819  -25.1822   -9.8276 C.ar      1 <0>        -0.1150 
     14 C14        12.9085  -25.0385  -12.8766 C.ar      1 <0>        -0.1150 
     15 C15        13.0902  -25.4351  -14.2249 C.ar      1 <0>         0.0850 
     16 C16         9.5480  -23.7554  -10.5979 C.2       1 <0>         0.5000 
     17 C17        13.8598  -24.0228  -12.2773 C.2       1 <0>         0.7150 
     18 N1         10.0566  -24.9971  -10.4730 N.am      1 <0>        -0.0317 
     19 O1         15.0054  -23.8880  -12.7578 O.co2     1 <0>        -0.8000 
     20 O2         10.1493  -22.7585  -11.0029 O.2       1 <0>        -0.5000 
     21 O3         13.4470  -23.2287  -11.4037 O.co2     1 <0>        -0.8000 
     22 O4         12.6578  -26.5275  -16.1386 O.3       1 <0>        -0.2850 
     23 O5         14.0327  -25.0252  -15.1182 O.3       1 <0>        -0.2850 
     24 Cl1         5.3748  -28.0620   -8.6024 Cl        1 <0>        -0.1800 
     25 H1          7.9984  -29.0058   -9.2154 H         1 <0>         0.1150 
     26 H2         10.1110  -26.9975  -12.3537 H         1 <0>         0.1150 
     27 H3         10.0516  -27.8292   -9.9663 H         1 <0>         0.1150 
     28 H4         10.5049  -27.6047  -14.6959 H         1 <0>         0.1150 
     29 H5          5.7987  -25.2798   -9.2103 H         1 <0>         0.1150 
     30 H6          7.9238  -23.0891   -9.2890 H         1 <0>         0.0600 
     31 H7          7.4226  -23.4035  -10.9772 H         1 <0>         0.0600 
     32 H8         13.6891  -25.0669  -17.1348 H         1 <0>         0.1000 
     33 H9         14.6702  -26.4022  -16.4844 H         1 <0>         0.1000 
     34 H10        11.6612  -26.2990  -10.1744 H         1 <0>         0.0600 
     35 H11        12.0725  -24.6450  -10.2117 H         1 <0>         0.0600 
@<TRIPOS>BOND
     1    1    3 ar   
     2    1    9 ar   
     3    1   25 1    
     4    2    4 ar   
     5    2   10 ar   
     6    2   26 1    
     7    3   11 ar   
     8    3   27 1    
     9    4   12 ar   
    10    4   28 1    
    11    5    9 ar   
    12    5   13 ar   
    13    5   29 1    
    14    6   13 1    
    15    6   16 1    
    16    6   30 1    
    17    6   31 1    
    18    7   22 1    
    19    7   23 1    
    20    7   32 1    
    21    7   33 1    
    22    8   10 1    
    23    8   18 1    
    24    8   34 1    
    25    8   35 1    
    26    9   24 1    
    27   10   14 ar   
    28   11   13 ar   
    29   11   18 1    
    30   12   15 ar   
    31   12   22 1    
    32   14   15 ar   
    33   14   17 1    
    34   15   23 1    
    35   16   18 am   BACKBONE|DICT|INTERRES
    36   16   20 2    
    37   17   19 1    
    38   17   21 2    
@<TRIPOS>SUBSTRUCTURE
     1 <0>         1 GROUP             0       ****    0 ROOT    
@<TRIPOS>MOLECULE
hivint-ligand
35   38    1
SMALL
USER_CHARGES


@<TRIPOS>ATOM
      1 C1          4.9283  -29.7492   -8.5467 C.ar      1 <0>        -0.1150 
      2 C2          7.1062  -35.1242   -5.8523 C.ar      1 <0>        -0.1150 
      3 C3          5.4463  -30.6747   -7.6127 C.ar      1 <0>        -0.1150 
      4 C4          7.6655  -36.3374   -5.3971 C.ar      1 <0>        -0.1150 
      5 C5          2.9279  -31.1373   -8.8761 C.ar      1 <0>        -0.1150 
      6 C6          2.8511  -33.3305   -7.4543 C.3       1 <0>        -0.0050 
      7 C7          8.1154  -37.3077   -1.9834 C.3       1 <0>         0.2000 
      8 C8          6.1102  -32.8252   -5.5149 C.3       1 <0>         0.0650 
      9 C9          3.6768  -29.9772   -9.1688 C.ar      1 <0>         0.1800 
     10 C10         6.6206  -34.1482   -4.9409 C.ar      1 <0>        -0.1150 
     11 C11         4.6806  -31.8218   -7.3252 C.ar      1 <0>        -0.0383 
     12 C12         7.7443  -36.5423   -4.0124 C.ar      1 <0>         0.0850 
     13 C13         3.4580  -32.0442   -7.9429 C.ar      1 <0>        -0.1150 
     14 C14         6.6926  -34.3931   -3.5359 C.ar      1 <0>        -0.1150 
     15 C15         7.2790  -35.6047   -3.1135 C.ar      1 <0>         0.0850 
     16 C16         3.9449  -33.7655   -6.4645 C.2       1 <0>         0.5000 
     17 C17         6.1972  -33.4128   -2.5157 C.2       1 <0>         0.7150 
     18 N1          4.9599  -32.8711   -6.4277 N.am      1 <0>        -0.0317 
     19 O1          7.0470  -32.8258   -1.8071 O.co2     1 <0>        -0.8000 
     20 O2          3.8468  -34.8029   -5.8122 O.2       1 <0>        -0.5000 
     21 O3          4.9644  -33.2023   -2.4321 O.co2     1 <0>        -0.8000 
     22 O4          8.2508  -37.6106   -3.3466 O.3       1 <0>        -0.2850 
     23 O5          7.4857  -36.0621   -1.8488 O.3       1 <0>        -0.2850 
     24 Cl1         3.0469  -28.8203  -10.2812 Cl        1 <0>        -0.1800 
     25 H1          5.4887  -28.8567   -8.7803 H         1 <0>         0.1150 
     26 H2          7.0564  -34.9344   -6.9146 H         1 <0>         0.1150 
     27 H3          6.3947  -30.4912   -7.1325 H         1 <0>         0.1150 
     28 H4          8.0355  -37.0761   -6.0912 H         1 <0>         0.1150 
     29 H5          1.9738  -31.3137   -9.3499 H         1 <0>         0.1150 
     30 H6          2.7209  -34.0558   -8.2560 H         1 <0>         0.0600 
     31 H7          1.9009  -33.1595   -6.9466 H         1 <0>         0.0600 
     32 H8          9.1035  -37.2668   -1.5227 H         1 <0>         0.1000 
     33 H9          7.5173  -38.0784   -1.4941 H         1 <0>         0.1000 
     34 H10         5.8888  -32.0894   -4.7431 H         1 <0>         0.0600 
     35 H11         6.9576  -32.4203   -6.0647 H         1 <0>         0.0600 
@<TRIPOS>BOND
     1    1    3 ar   
     2    1    9 ar   
     3    1   25 1    
     4    2    4 ar   
     5    2   10 ar   
     6    2   26 1    
     7    3   11 ar   
     8    3   27 1    
     9    4   12 ar   
    10    4   28 1    
    11    5    9 ar   
    12    5   13 ar   
    13    5   29 1    
    14    6   13 1    
    15    6   16 1    
    16    6   30 1    
    17    6   31 1    
    18    7   22 1    
    19    7   23 1    
    20    7   32 1    
    21    7   33 1    
    22    8   10 1    
    23    8   18 1    
    24    8   34 1    
    25    8   35 1    
    26    9   24 1    
    27   10   14 ar   
    28   11   13 ar   
    29   11   18 1    
    30   12   15 ar   
    31   12   22 1    
    32   14   15 ar   
    33   14   17 1    
    34   15   23 1    
    35   16   18 am   BACKBONE|DICT|INTERRES
    36   16   20 2    
    37   17   19 1    
    38   17   21 2    
@<TRIPOS>SUBSTRUCTURE
     1 <0>         1 GROUP             0       ****    0 ROOT    
@<TRIPOS>MOLECULE
hivint-ligand
35   38    1
SMALL
USER_CHARGES


@<TRIPOS>ATOM
      1 C1          7.4520  -30.3317   -9.0695 C.ar      1 <0>        -0.1150 
      2 C2          9.4471  -27.2263  -12.3994 C.ar      1 <0>        -0.1150 
      3 C3          8.1901  -29.1894   -9.4581 C.ar      1 <0>        -0.1150 
      4 C4          9.4518  -27.1177  -13.8021 C.ar      1 <0>        -0.1150 
      5 C5          5.4998  -28.9431   -8.5378 C.ar      1 <0>        -0.1150 
      6 C6          5.8196  -26.3813   -8.9196 C.3       1 <0>        -0.0050 
      7 C7          9.7483  -24.0950  -15.6785 C.3       1 <0>         0.2000 
      8 C8          9.4477  -26.3603  -10.0535 C.3       1 <0>         0.0650 
      9 C9          6.1198  -30.2106   -8.6036 C.ar      1 <0>         0.1800 
     10 C10         9.5613  -26.0928  -11.5550 C.ar      1 <0>        -0.1150 
     11 C11         7.5607  -27.9342   -9.3692 C.ar      1 <0>        -0.0383 
     12 C12         9.5834  -25.8377  -14.3497 C.ar      1 <0>         0.0850 
     13 C13         6.2467  -27.8208   -8.9306 C.ar      1 <0>        -0.1150 
     14 C14         9.7088  -24.7930  -12.1389 C.ar      1 <0>        -0.1150 
     15 C15         9.7086  -24.7187  -13.5533 C.ar      1 <0>         0.0850 
     16 C16         7.1251  -25.7240   -9.3914 C.2       1 <0>         0.5000 
     17 C17         9.8939  -23.5288  -11.3417 C.2       1 <0>         0.7150 
     18 N1          8.0728  -26.6495   -9.6421 N.am      1 <0>        -0.0317 
     19 O1         10.6354  -23.5346  -10.3343 O.co2     1 <0>        -0.8000 
     20 O2          7.2550  -24.5059   -9.4878 O.2       1 <0>        -0.5000 
     21 O3          9.4469  -22.4516  -11.7986 O.co2     1 <0>        -0.8000 
     22 O4          9.6164  -25.4881  -15.6589 O.3       1 <0>        -0.2850 
     23 O5          9.8477  -23.6269  -14.3581 O.3       1 <0>        -0.2850 
     24 Cl1         5.2534  -31.6149   -8.1005 Cl        1 <0>        -0.1800 
     25 H1          7.9178  -31.3038   -9.1165 H         1 <0>         0.1150 
     26 H2          9.3093  -28.2041  -11.9647 H         1 <0>         0.1150 
     27 H3          9.2067  -29.2857   -9.8034 H         1 <0>         0.1150 
     28 H4          9.3454  -27.9901  -14.4264 H         1 <0>         0.1150 
     29 H5          4.4849  -28.8404   -8.1821 H         1 <0>         0.1150 
     30 H6          5.5684  -26.0583   -7.9128 H         1 <0>         0.0600 
     31 H7          4.9944  -26.1891   -9.6054 H         1 <0>         0.0600 
     32 H8          8.8722  -23.6554  -16.1550 H         1 <0>         0.1000 
     33 H9         10.6409  -23.8186  -16.2387 H         1 <0>         0.1000 
     34 H10        10.0908  -27.2059   -9.8132 H         1 <0>         0.0600 
     35 H11         9.8310  -25.5573   -9.4319 H         1 <0>         0.0600 
@<TRIPOS>BOND
     1    1    3 ar   
     2    1    9 ar   
     3    1   25 1    
     4    2    4 ar   
     5    2   10 ar   
     6    2   26 1    
     7    3   11 ar   
     8    3   27 1    
     9    4   12 ar   
    10    4   28 1    
    11    5    9 ar   
    12    5   13 ar   
    13    5   29 1    
    14    6   13 1    
    15    6   16 1    
    16    6   30 1    
    17    6   31 1    
    18    7   22 1    
    19    7   23 1    
    20    7   32 1    
    21    7   33 1    
    22    8   10 1    
    23    8   18 1    
    24    8   34 1    
    25    8   35 1    
    26    9   24 1    
    27   10   14 ar   
    28   11   13 ar   
    29   11   18 1    
    30   12   15 ar   
    31   12   22 1    
    32   14   15 ar   
    33   14   17 1    
    34   15   23 1    
    35   16   18 am   BACKBONE|DICT|INTERRES
    36   16   20 2    
    37   17   19 1    
    38   17   21 2    
@<TRIPOS>SUBSTRUCTURE
     1 <0>         1 GROUP             0       ****    0 ROOT    
@<TRIPOS>MOLECULE
hivint-ligand
35   38    1
SMALL
USER_CHARGES


@<TRIPOS>ATOM
      1 C1          6.2036  -28.0292   -8.9421 C.ar      1 <0>        -0.1150 
      2 C2          4.9615  -31.9864   -5.2809 C.ar      1 <0>        -0.1150 
      3 C3          6.2390  -29.3845   -8.5448 C.ar      1 <0>        -0.1150 
      4 C4          4.9165  -32.2642   -3.9006 C.ar      1 <0>        -0.1150 
      5 C5          3.7965  -28.1863   -9.4033 C.ar      1 <0>        -0.1150 
      6 C6          2.7065  -30.5032   -8.8575 C.3       1 <0>        -0.0050 
      7 C7          6.8499  -34.7229   -2.1816 C.3       1 <0>         0.2000 
      8 C8          5.8189  -32.3586   -7.6649 C.3       1 <0>         0.0650 
      9 C9          4.9901  -27.4303   -9.3597 C.ar      1 <0>         0.1800 
     10 C10         5.8465  -32.6723   -6.1601 C.ar      1 <0>        -0.1150 
     11 C11         5.0310  -30.1058   -8.5459 C.ar      1 <0>        -0.0383 
     12 C12         5.7737  -33.2536   -3.4111 C.ar      1 <0>         0.0850 
     13 C13         3.8437  -29.5232   -8.9707 C.ar      1 <0>        -0.1150 
     14 C14         6.7315  -33.6666   -5.6247 C.ar      1 <0>        -0.1150 
     15 C15         6.6464  -33.9309   -4.2374 C.ar      1 <0>         0.0850 
     16 C16         3.4754  -31.7159   -8.3106 C.2       1 <0>         0.5000 
     17 C17         7.7318  -34.4253   -6.4656 C.2       1 <0>         0.7150 
     18 N1          4.7846  -31.4316   -8.1434 N.am      1 <0>        -0.0317 
     19 O1          8.2980  -33.8447   -7.4178 O.co2     1 <0>        -0.8000 
     20 O2          2.9283  -32.7891   -8.0635 O.2       1 <0>        -0.5000 
     21 O3          7.9858  -35.6150   -6.1782 O.co2     1 <0>        -0.8000 
     22 O4          5.9017  -33.6929   -2.1343 O.3       1 <0>        -0.2850 
     23 O5          7.3583  -34.8128   -3.4841 O.3       1 <0>        -0.2850 
     24 Cl1         4.9725  -25.7699   -9.8253 Cl        1 <0>        -0.1800 
     25 H1          7.1118  -27.4450   -8.9251 H         1 <0>         0.1150 
     26 H2          4.2943  -31.2253   -5.6524 H         1 <0>         0.1150 
     27 H3          7.1641  -29.8372   -8.2235 H         1 <0>         0.1150 
     28 H4          4.2427  -31.7347   -3.2437 H         1 <0>         0.1150 
     29 H5          2.8673  -27.7389   -9.7241 H         1 <0>         0.1150 
     30 H6          2.2487  -30.7172   -9.8225 H         1 <0>         0.0600 
     31 H7          1.9507  -30.1609   -8.1505 H         1 <0>         0.0600 
     32 H8          6.3695  -35.6664   -1.9197 H         1 <0>         0.1000 
     33 H9          7.6580  -34.5198   -1.4788 H         1 <0>         0.1000 
     34 H10         6.7942  -31.9764   -7.9572 H         1 <0>         0.0600 
     35 H11         5.6952  -33.2967   -8.2027 H         1 <0>         0.0600 
@<TRIPOS>BOND
     1    1    3 ar   
     2    1    9 ar   
     3    1   25 1    
     4    2    4 ar   
     5    2   10 ar   
     6    2   26 1    
     7    3   11 ar   
     8    3   27 1    
     9    4   12 ar   
    10    4   28 1    
    11    5    9 ar   
    12    5   13 ar   
    13    5   29 1    
    14    6   13 1    
    15    6   16 1    
    16    6   30 1    
    17    6   31 1    
    18    7   22 1    
    19    7   23 1    
    20    7   32 1    
    21    7   33 1    
    22    8   10 1    
    23    8   18 1    
    24    8   34 1    
    25    8   35 1    
    26    9   24 1    
    27   10   14 ar   
    28   11   13 ar   
    29   11   18 1    
    30   12   15 ar   
    31   12   22 1    
    32   14   15 ar   
    33   14   17 1    
    34   15   23 1    
    35   16   18 am   BACKBONE|DICT|INTERRES
    36   16   20 2    
    37   17   19 1    
    38   17   21 2    
@<TRIPOS>SUBSTRUCTURE
     1 <0>         1 GROUP             0       ****    0 ROOT    
