@<TRIPOS>MOLECULE
hivpr-ligand
85   88    1
SMALL
USER_CHARGES


@<TRIPOS>ATOM
      1 C1         18.0497    0.1224   21.3682 C.3       1 <0>        -0.0650 
      2 C2         19.9400    0.7546   16.6556 C.3       1 <0>        -0.0650 
      3 C3         18.7232   -4.9318    9.1647 C.3       1 <0>        -0.1800 
      4 C4         20.1454   -2.8555    9.3696 C.3       1 <0>        -0.1800 
      5 C5         15.2083   -5.4866   19.2072 C.ar      1 <0>        -0.1150 
      6 C6         18.3592    1.7660    9.8259 C.ar      1 <0>        -0.1150 
      7 C7         16.3151   -6.0132   18.5189 C.ar      1 <0>        -0.1150 
      8 C8         14.9674   -4.1016   19.2020 C.ar      1 <0>        -0.1150 
      9 C9         19.0373    1.8040   11.0573 C.ar      1 <0>        -0.1150 
     10 C10        17.5810    0.6430    9.4892 C.ar      1 <0>        -0.1150 
     11 C11        17.1078    2.4936   18.5271 C.ar      1 <0>        -0.1150 
     12 C12        17.1900   -5.1529   17.8262 C.ar      1 <0>        -0.1150 
     13 C13        15.8400   -3.2431   18.5091 C.ar      1 <0>        -0.1150 
     14 C14        18.9604    0.7115   11.9439 C.ar      1 <0>        -0.1150 
     15 C15        17.4799   -0.4395   10.3862 C.ar      1 <0>        -0.1150 
     16 C16        17.1143    1.8148   19.7575 C.ar      1 <0>        -0.1150 
     17 C17        18.0211    2.1373   17.5226 C.ar      1 <0>        -0.1150 
     18 C18        22.2306   -2.6143   15.9938 C.3       1 <0>         0.1700 
     19 C19        22.7851   -3.5552   13.9224 C.3       1 <0>         0.1700 
     20 C20        17.8894   -2.8127   17.0721 C.3       1 <0>         0.0650 
     21 C21        19.9506   -3.8275   16.1263 C.3       1 <0>        -0.0500 
     22 C22        20.7659   -2.5155   12.7516 C.3       1 <0>         0.0588 
     23 C23        19.2092   -4.0093   11.4727 C.3       1 <0>         0.0588 
     24 C24        19.3894   -1.9132   19.4544 C.3       1 <0>         0.1400 
     25 C25        18.0325    0.7693   19.9941 C.ar      1 <0>        -0.1150 
     26 C26        18.9411    1.0933   17.7433 C.ar      1 <0>        -0.1150 
     27 C27        16.9585   -3.7586   17.8203 C.ar      1 <0>        -0.1150 
     28 C28        18.1889   -0.4151   11.6010 C.ar      1 <0>         0.1567 
     29 C29        18.9402    0.3866   18.9709 C.ar      1 <0>         0.0850 
     30 C30        20.8857   -2.9025   15.3069 C.3       1 <0>        -0.0600 
     31 C31        21.2538   -3.4420   13.9007 C.3       1 <0>        -0.0233 
     32 C32        18.9874   -3.6597    9.9858 C.3       1 <0>        -0.0233 
     33 C33        19.9732   -2.8889   18.4233 C.2       1 <0>         0.5000 
     34 N1         23.2261   -2.5836   14.9250 N.4       1 <0>        -0.2000 
     35 N2         19.3151   -3.1274   17.2603 N.am      1 <0>        -0.1400 
     36 N3         19.3860   -2.8282   12.3436 N.pl3     1 <0>        -0.5376 
     37 O1         21.0732   -3.3833   18.6703 O.2       1 <0>        -0.5000 
     38 O2         18.2896   -1.2516   14.1039 O.2       1 <0>        -0.4680 
     39 O3         16.8129   -2.5150   12.4538 O.2       1 <0>        -0.4680 
     40 O4         19.8734   -0.6084   19.1457 O.3       1 <0>        -0.2850 
     41 S1         18.0522   -1.7831   12.7541 S.o2      1 <0>         0.8327 
     42 H1         17.6536    0.8020   22.1229 H         1 <0>         0.0600 
     43 H2         17.4387   -0.7813   21.3753 H         1 <0>         0.0600 
     44 H3         19.0666   -0.1357   21.6656 H         1 <0>         0.0600 
     45 H4         19.5506    1.0062   15.6690 H         1 <0>         0.0600 
     46 H5         20.8662    1.3066   16.8128 H         1 <0>         0.0600 
     47 H6         20.1705   -0.3070   16.6607 H         1 <0>         0.0600 
     48 H7         19.5919   -5.5914    9.1640 H         1 <0>         0.0600 
     49 H8         17.8792   -5.4894    9.5746 H         1 <0>         0.0600 
     50 H9         18.4781   -4.6883    8.1315 H         1 <0>         0.0600 
     51 H10        21.0907   -3.3941    9.4378 H         1 <0>         0.0600 
     52 H11        19.9590   -2.6415    8.3154 H         1 <0>         0.0600 
     53 H12        20.2715   -1.8951    9.8710 H         1 <0>         0.0600 
     54 H13        14.5315   -6.1484   19.7245 H         1 <0>         0.1150 
     55 H14        18.4267    2.6056    9.1478 H         1 <0>         0.1150 
     56 H15        16.4889   -7.0777   18.5174 H         1 <0>         0.1150 
     57 H16        14.1123   -3.6961   19.7232 H         1 <0>         0.1150 
     58 H17        19.6148    2.6752   11.3225 H         1 <0>         0.1150 
     59 H18        17.0424    0.6177    8.5535 H         1 <0>         0.1150 
     60 H19        16.4105    3.3015   18.3563 H         1 <0>         0.1150 
     61 H20        18.0332   -5.5753   17.3007 H         1 <0>         0.1150 
     62 H21        15.6428   -2.1823   18.5091 H         1 <0>         0.1150 
     63 H22        19.4995    0.7415   12.8799 H         1 <0>         0.1150 
     64 H23        16.8454   -1.2770   10.1430 H         1 <0>         0.1150 
     65 H24        16.4207    2.1132   20.5297 H         1 <0>         0.1150 
     66 H25        18.0218    2.6733   16.5854 H         1 <0>         0.1150 
     67 H26        22.5178   -3.4321   16.6533 H         1 <0>         0.0600 
     68 H27        22.2292   -1.6908   16.5734 H         1 <0>         0.0600 
     69 H28        23.0833   -4.5511   14.2523 H         1 <0>         0.0600 
     70 H29        23.2608   -3.3712   12.9595 H         1 <0>         0.0600 
     71 H30        17.6875   -1.7781   17.3550 H         1 <0>         0.0600 
     72 H31        17.6137   -2.8572   16.0178 H         1 <0>         0.0600 
     73 H32        19.1839   -4.2313   15.4635 H         1 <0>         0.0600 
     74 H33        20.4919   -4.7067   16.4806 H         1 <0>         0.0600 
     75 H34        21.4107   -2.6311   11.8804 H         1 <0>         0.0733 
     76 H35        20.8452   -1.4610   13.0242 H         1 <0>         0.0733 
     77 H36        20.0715   -4.6688   11.5636 H         1 <0>         0.0733 
     78 H37        18.3598   -4.5822   11.8466 H         1 <0>         0.0733 
     79 H38        18.3061   -1.9794   19.5102 H         1 <0>         0.0300 
     80 H39        19.7616   -2.1829   20.4439 H         1 <0>         0.0300 
     81 H40        20.3831   -1.9481   15.1759 H         1 <0>         0.0600 
     82 H41        20.8516   -4.4459   13.7533 H         1 <0>         0.0600 
     83 H42        18.0829   -3.0614    9.9147 H         1 <0>         0.0600 
     84 H43        24.1597   -2.7645   15.2596 H         1 <0>         0.3100 
     85 H44        23.2098   -1.6666   14.4374 H         1 <0>         0.3100 
@<TRIPOS>BOND
     1    1   25 1    
     2    1   42 1    
     3    1   43 1    
     4    1   44 1    
     5    2   26 1    
     6    2   45 1    
     7    2   46 1    
     8    2   47 1    
     9    3   32 1    
    10    3   48 1    
    11    3   49 1    
    12    3   50 1    
    13    4   32 1    
    14    4   51 1    
    15    4   52 1    
    16    4   53 1    
    17    5    7 ar   
    18    5    8 ar   
    19    5   54 1    
    20    6    9 ar   
    21    6   10 ar   
    22    6   55 1    
    23    7   12 ar   
    24    7   56 1    
    25    8   13 ar   
    26    8   57 1    
    27    9   14 ar   
    28    9   58 1    
    29   10   15 ar   
    30   10   59 1    
    31   11   16 ar   
    32   11   17 ar   
    33   11   60 1    
    34   12   27 ar   
    35   12   61 1    
    36   13   27 ar   
    37   13   62 1    
    38   14   28 ar   
    39   14   63 1    
    40   15   28 ar   
    41   15   64 1    
    42   16   25 ar   
    43   16   65 1    
    44   17   26 ar   
    45   17   66 1    
    46   18   30 1    
    47   18   34 1    
    48   18   67 1    
    49   18   68 1    
    50   19   31 1    
    51   19   34 1    
    52   19   69 1    
    53   19   70 1    
    54   20   27 1    
    55   20   35 1    
    56   20   71 1    
    57   20   72 1    
    58   21   30 1    
    59   21   35 1    
    60   21   73 1    
    61   21   74 1    
    62   22   31 1    
    63   22   36 1    
    64   22   75 1    
    65   22   76 1    
    66   23   32 1    
    67   23   36 1    
    68   23   77 1    
    69   23   78 1    
    70   24   33 1    
    71   24   40 1    
    72   24   79 1    
    73   24   80 1    
    74   25   29 ar   
    75   26   29 ar   
    76   28   41 1    
    77   29   40 1    
    78   30   31 1    
    79   30   81 1    
    80   31   82 1    
    81   32   83 1    
    82   33   35 am   BACKBONE|DICT|INTERRES
    83   33   37 2    
    84   34   84 1    
    85   34   85 1    
    86   36   41 1    
    87   38   41 2    
    88   39   41 2    
@<TRIPOS>SUBSTRUCTURE
     1 <0>         1 GROUP             0       ****    0 ROOT    
@<TRIPOS>MOLECULE
hivpr-ligand
85   88    1
SMALL
USER_CHARGES


@<TRIPOS>ATOM
      1 C1         19.9272   -0.5208   22.4115 C.3       1 <0>        -0.0650 
      2 C2         19.1044    0.2124   17.4317 C.3       1 <0>        -0.0650 
      3 C3         19.9674   -3.5655    8.7819 C.3       1 <0>        -0.1800 
      4 C4         20.5766   -1.3528    9.8320 C.3       1 <0>        -0.1800 
      5 C5         15.8425   -5.6546   19.0082 C.ar      1 <0>        -0.1150 
      6 C6         19.2061    1.9169    8.9210 C.ar      1 <0>        -0.1150 
      7 C7         16.8097   -5.9901   18.0423 C.ar      1 <0>        -0.1150 
      8 C8         15.7990   -4.3496   19.5336 C.ar      1 <0>        -0.1150 
      9 C9         19.6029    2.0755   10.2640 C.ar      1 <0>        -0.1150 
     10 C10        18.3824    0.8355    8.5491 C.ar      1 <0>        -0.1150 
     11 C11        17.1795    1.3657   20.5288 C.ar      1 <0>        -0.1150 
     12 C12        17.7304   -5.0206   17.6003 C.ar      1 <0>        -0.1150 
     13 C13        16.7191   -3.3795   19.0915 C.ar      1 <0>        -0.1150 
     14 C14        19.1727    1.1545   11.2391 C.ar      1 <0>        -0.1150 
     15 C15        17.9494   -0.0882    9.5209 C.ar      1 <0>        -0.1150 
     16 C16        17.9477    0.8162   21.5715 C.ar      1 <0>        -0.1150 
     17 C17        17.5659    1.1680   19.1904 C.ar      1 <0>        -0.1150 
     18 C18        22.7031   -3.2537   15.3145 C.3       1 <0>         0.1700 
     19 C19        21.9986   -3.6213   13.1583 C.3       1 <0>         0.1700 
     20 C20        18.6956   -2.6816   17.6027 C.3       1 <0>         0.0650 
     21 C21        20.4812   -3.8553   16.3503 C.3       1 <0>        -0.0500 
     22 C22        20.1507   -1.9277   13.3210 C.3       1 <0>         0.0588 
     23 C23        19.4070   -3.1499   11.2142 C.3       1 <0>         0.0588 
     24 C24        20.4958   -2.2316   19.8761 C.3       1 <0>         0.1400 
     25 C25        19.1099    0.0728   21.2802 C.ar      1 <0>        -0.1150 
     26 C26        18.7250    0.4249   18.8865 C.ar      1 <0>        -0.1150 
     27 C27        17.6891   -3.7075   18.1155 C.ar      1 <0>        -0.1150 
     28 C28        18.3424    0.0791   10.8647 C.ar      1 <0>         0.1567 
     29 C29        19.5095   -0.1126   19.9369 C.ar      1 <0>         0.0850 
     30 C30        21.2029   -2.9635   15.3440 C.3       1 <0>        -0.0600 
     31 C31        20.7349   -3.2076   13.9119 C.3       1 <0>        -0.0233 
     32 C32        19.5612   -2.5076    9.8177 C.3       1 <0>        -0.0233 
     33 C33        20.9539   -2.9837   18.6161 C.2       1 <0>         0.5000 
     34 N1         23.0766   -3.0153   13.9273 N.4       1 <0>        -0.2000 
     35 N2         20.0943   -3.1391   17.5772 N.am      1 <0>        -0.1400 
     36 N3         19.1273   -2.1587   12.2770 N.pl3     1 <0>        -0.5376 
     37 O1         22.1054   -3.4202   18.5762 O.2       1 <0>        -0.5000 
     38 O2         17.6280   -0.3462   13.3857 O.2       1 <0>        -0.4680 
     39 O3         16.6485   -1.8292   11.5551 O.2       1 <0>        -0.4680 
     40 O4         20.6443   -0.8336   19.6669 O.3       1 <0>        -0.2850 
     41 S1         17.7774   -1.0710   12.1144 S.o2      1 <0>         0.8327 
     42 H1         19.3904   -0.4682   23.3591 H         1 <0>         0.0600 
     43 H2         20.1524   -1.5686   22.2109 H         1 <0>         0.0600 
     44 H3         20.8675    0.0193   22.5215 H         1 <0>         0.0600 
     45 H4         18.2145    0.1632   16.8038 H         1 <0>         0.0600 
     46 H5         19.7229    1.0378   17.0791 H         1 <0>         0.0600 
     47 H6         19.6576   -0.7169   17.2947 H         1 <0>         0.0600 
     48 H7         20.9311   -4.0128    9.0282 H         1 <0>         0.0600 
     49 H8         19.2317   -4.3684    8.7280 H         1 <0>         0.0600 
     50 H9         20.0494   -3.1297    7.7856 H         1 <0>         0.0600 
     51 H10        21.5627   -1.6962   10.1468 H         1 <0>         0.0600 
     52 H11        20.6803   -0.9071    8.8424 H         1 <0>         0.0600 
     53 H12        20.2711   -0.5595   10.5146 H         1 <0>         0.0600 
     54 H13        15.1359   -6.3982   19.3471 H         1 <0>         0.1150 
     55 H14        19.5430    2.6202    8.1730 H         1 <0>         0.1150 
     56 H15        16.8451   -6.9921   17.6401 H         1 <0>         0.1150 
     57 H16        15.0580   -4.0924   20.2763 H         1 <0>         0.1150 
     58 H17        20.2430    2.8994   10.5446 H         1 <0>         0.1150 
     59 H18        18.0885    0.7108    7.5170 H         1 <0>         0.1150 
     60 H19        16.2893    1.9339   20.7554 H         1 <0>         0.1150 
     61 H20        18.4670   -5.2903   16.8574 H         1 <0>         0.1150 
     62 H21        16.6649   -2.3857   19.5098 H         1 <0>         0.1150 
     63 H22        19.4810    1.2709   12.2676 H         1 <0>         0.1150 
     64 H23        17.3201   -0.9171    9.2320 H         1 <0>         0.1150 
     65 H24        17.6387    0.9670   22.5956 H         1 <0>         0.1150 
     66 H25        16.9649    1.5860   18.3959 H         1 <0>         0.1150 
     67 H26        22.9441   -4.2655   15.6406 H         1 <0>         0.0600 
     68 H27        23.2363   -2.5569   15.9612 H         1 <0>         0.0600 
     69 H28        22.1058   -4.7028   13.0753 H         1 <0>         0.0600 
     70 H29        21.9911   -3.2065   12.1504 H         1 <0>         0.0600 
     71 H30        18.6189   -1.7694   18.1968 H         1 <0>         0.0600 
     72 H31        18.3806   -2.3845   16.6013 H         1 <0>         0.0600 
     73 H32        19.5837   -4.2761   15.8962 H         1 <0>         0.0600 
     74 H33        21.0940   -4.7263   16.5903 H         1 <0>         0.0600 
     75 H34        20.9565   -1.3130   12.9207 H         1 <0>         0.0733 
     76 H35        19.6972   -1.3202   14.1032 H         1 <0>         0.0733 
     77 H36        20.3226   -3.6922   11.4494 H         1 <0>         0.0733 
     78 H37        18.6211   -3.9046   11.2114 H         1 <0>         0.0733 
     79 H38        19.4491   -2.4670   20.0714 H         1 <0>         0.0300 
     80 H39        21.0690   -2.5365   20.7496 H         1 <0>         0.0300 
     81 H40        21.0172   -1.9284   15.6309 H         1 <0>         0.0600 
     82 H41        19.9653   -3.9772   13.8529 H         1 <0>         0.0600 
     83 H42        18.6009   -2.1081    9.4925 H         1 <0>         0.0600 
     84 H43        23.9612   -3.4529   13.7128 H         1 <0>         0.3100 
     85 H44        23.1937   -2.0334   13.7217 H         1 <0>         0.3100 
@<TRIPOS>BOND
     1    1   25 1    
     2    1   42 1    
     3    1   43 1    
     4    1   44 1    
     5    2   26 1    
     6    2   45 1    
     7    2   46 1    
     8    2   47 1    
     9    3   32 1    
    10    3   48 1    
    11    3   49 1    
    12    3   50 1    
    13    4   32 1    
    14    4   51 1    
    15    4   52 1    
    16    4   53 1    
    17    5    7 ar   
    18    5    8 ar   
    19    5   54 1    
    20    6    9 ar   
    21    6   10 ar   
    22    6   55 1    
    23    7   12 ar   
    24    7   56 1    
    25    8   13 ar   
    26    8   57 1    
    27    9   14 ar   
    28    9   58 1    
    29   10   15 ar   
    30   10   59 1    
    31   11   16 ar   
    32   11   17 ar   
    33   11   60 1    
    34   12   27 ar   
    35   12   61 1    
    36   13   27 ar   
    37   13   62 1    
    38   14   28 ar   
    39   14   63 1    
    40   15   28 ar   
    41   15   64 1    
    42   16   25 ar   
    43   16   65 1    
    44   17   26 ar   
    45   17   66 1    
    46   18   30 1    
    47   18   34 1    
    48   18   67 1    
    49   18   68 1    
    50   19   31 1    
    51   19   34 1    
    52   19   69 1    
    53   19   70 1    
    54   20   27 1    
    55   20   35 1    
    56   20   71 1    
    57   20   72 1    
    58   21   30 1    
    59   21   35 1    
    60   21   73 1    
    61   21   74 1    
    62   22   31 1    
    63   22   36 1    
    64   22   75 1    
    65   22   76 1    
    66   23   32 1    
    67   23   36 1    
    68   23   77 1    
    69   23   78 1    
    70   24   33 1    
    71   24   40 1    
    72   24   79 1    
    73   24   80 1    
    74   25   29 ar   
    75   26   29 ar   
    76   28   41 1    
    77   29   40 1    
    78   30   31 1    
    79   30   81 1    
    80   31   82 1    
    81   32   83 1    
    82   33   35 am   BACKBONE|DICT|INTERRES
    83   33   37 2    
    84   34   84 1    
    85   34   85 1    
    86   36   41 1    
    87   38   41 2    
    88   39   41 2    
@<TRIPOS>SUBSTRUCTURE
     1 <0>         1 GROUP             0       ****    0 ROOT    
@<TRIPOS>MOLECULE
hivpr-ligand
85   88    1
SMALL
USER_CHARGES


@<TRIPOS>ATOM
      1 C1         20.3535    0.1863   22.0366 C.3       1 <0>        -0.0650 
      2 C2         24.2132   -1.2295   18.9749 C.3       1 <0>        -0.0650 
      3 C3         19.9457   -5.6325   11.0421 C.3       1 <0>        -0.1800 
      4 C4         20.5403   -4.8534    8.7155 C.3       1 <0>        -0.1800 
      5 C5         15.5172   -4.7640   19.7355 C.ar      1 <0>        -0.1150 
      6 C6         18.4099    2.0309    9.9972 C.ar      1 <0>        -0.1150 
      7 C7         15.5465   -3.3754   19.9658 C.ar      1 <0>        -0.1150 
      8 C8         16.4094   -5.3408   18.8120 C.ar      1 <0>        -0.1150 
      9 C9         18.3457    1.8202   11.3892 C.ar      1 <0>        -0.1150 
     10 C10        18.2319    0.9564    9.1056 C.ar      1 <0>        -0.1150 
     11 C11        23.3673    2.0899   20.6533 C.ar      1 <0>        -0.1150 
     12 C12        16.4706   -2.5641   19.2768 C.ar      1 <0>        -0.1150 
     13 C13        17.3316   -4.5282   18.1226 C.ar      1 <0>        -0.1150 
     14 C14        18.1209    0.5261   11.8959 C.ar      1 <0>        -0.1150 
     15 C15        18.0091   -0.3393    9.6083 C.ar      1 <0>        -0.1150 
     16 C16        22.1707    1.7866   21.3272 C.ar      1 <0>        -0.1150 
     17 C17        24.0148    1.0973   19.8967 C.ar      1 <0>        -0.1150 
     18 C18        22.4165   -3.0355   15.6214 C.3       1 <0>         0.1700 
     19 C19        22.2959   -3.6027   13.3498 C.3       1 <0>         0.1700 
     20 C20        18.3498   -2.2314   17.5978 C.3       1 <0>         0.0650 
     21 C21        19.9306   -3.5069   16.1627 C.3       1 <0>        -0.0500 
     22 C22        20.2141   -2.1740   12.8422 C.3       1 <0>         0.0588 
     23 C23        20.1426   -3.1298   10.5277 C.3       1 <0>         0.0588 
     24 C24        20.4687   -1.8329   19.6168 C.3       1 <0>         0.1400 
     25 C25        21.6082    0.4963   21.2383 C.ar      1 <0>        -0.1150 
     26 C26        23.4628   -0.1957   19.7943 C.ar      1 <0>        -0.1150 
     27 C27        17.3741   -3.1329   18.3527 C.ar      1 <0>        -0.1150 
     28 C28        17.9649   -0.5510   11.0012 C.ar      1 <0>         0.1567 
     29 C29        22.2412   -0.4987   20.4485 C.ar      1 <0>         0.0850 
     30 C30        20.9497   -2.7959   15.2354 C.3       1 <0>        -0.0600 
     31 C31        20.8508   -3.2529   13.7538 C.3       1 <0>        -0.0233 
     32 C32        19.7560   -4.5263    9.9939 C.3       1 <0>        -0.0233 
     33 C33        20.6231   -2.8039   18.4353 C.2       1 <0>         0.5000 
     34 N1         23.1534   -2.9836   14.3630 N.4       1 <0>        -0.2000 
     35 N2         19.7003   -2.8035   17.4401 N.am      1 <0>        -0.1400 
     36 N3         19.4014   -2.7552   11.7508 N.pl3     1 <0>        -0.5376 
     37 O1         21.6184   -3.5281   18.4007 O.2       1 <0>        -0.5000 
     38 O2         17.2084   -2.1512   12.9898 O.2       1 <0>        -0.4680 
     39 O3         17.0687   -3.0014   10.5873 O.2       1 <0>        -0.4680 
     40 O4         21.7022   -1.7590   20.3346 O.3       1 <0>        -0.2850 
     41 S1         17.7516   -2.2142   11.6246 S.o2      1 <0>         0.8327 
     42 H1         20.2654    0.8496   22.8965 H         1 <0>         0.0600 
     43 H2         19.4649    0.3084   21.4185 H         1 <0>         0.0600 
     44 H3         20.3758   -0.8353   22.4158 H         1 <0>         0.0600 
     45 H4         24.3014   -0.8946   17.9410 H         1 <0>         0.0600 
     46 H5         25.2191   -1.3619   19.3756 H         1 <0>         0.0600 
     47 H6         23.7270   -2.2020   18.9772 H         1 <0>         0.0600 
     48 H7         20.9874   -5.7230   11.3488 H         1 <0>         0.0600 
     49 H8         19.3472   -5.4443   11.9342 H         1 <0>         0.0600 
     50 H9         19.6182   -6.5923   10.6464 H         1 <0>         0.0600 
     51 H10        21.6062   -4.9670    8.9140 H         1 <0>         0.0600 
     52 H11        20.1863   -5.7843    8.2754 H         1 <0>         0.0600 
     53 H12        20.4227   -4.0682    7.9692 H         1 <0>         0.0600 
     54 H13        14.8093   -5.3855   20.2633 H         1 <0>         0.1150 
     55 H14        18.5944    3.0219    9.6104 H         1 <0>         0.1150 
     56 H15        14.8557   -2.9287   20.6664 H         1 <0>         0.1150 
     57 H16        16.3852   -6.4064   18.6295 H         1 <0>         0.1150 
     58 H17        18.4759    2.6521   12.0661 H         1 <0>         0.1150 
     59 H18        18.2745    1.1254    8.0395 H         1 <0>         0.1150 
     60 H19        23.8021    3.0755   20.7320 H         1 <0>         0.1150 
     61 H20        16.4766   -1.4988   19.4580 H         1 <0>         0.1150 
     62 H21        18.0008   -4.9916   17.4142 H         1 <0>         0.1150 
     63 H22        18.0871    0.3584   12.9619 H         1 <0>         0.1150 
     64 H23        17.8881   -1.1677    8.9279 H         1 <0>         0.1150 
     65 H24        21.6938    2.5439   21.9309 H         1 <0>         0.1150 
     66 H25        24.9439    1.3297   19.3967 H         1 <0>         0.1150 
     67 H26        22.5568   -4.0304   16.0467 H         1 <0>         0.0600 
     68 H27        22.7954   -2.2985   16.3302 H         1 <0>         0.0600 
     69 H28        22.4414   -4.6845   13.3763 H         1 <0>         0.0600 
     70 H29        22.5856   -3.2534   12.3618 H         1 <0>         0.0600 
     71 H30        18.3875   -1.2518   18.0744 H         1 <0>         0.0600 
     72 H31        17.9138   -2.0223   16.6199 H         1 <0>         0.0600 
     73 H32        18.9874   -3.6091   15.6240 H         1 <0>         0.0600 
     74 H33        20.2443   -4.5348   16.3568 H         1 <0>         0.0600 
     75 H34        20.9595   -1.4866   12.4377 H         1 <0>         0.0733 
     76 H35        19.5646   -1.5440   13.4485 H         1 <0>         0.0733 
     77 H36        19.9643   -2.3740    9.7630 H         1 <0>         0.0733 
     78 H37        21.2120   -3.1053   10.7083 H         1 <0>         0.0733 
     79 H38        20.1754   -0.8512   19.2416 H         1 <0>         0.0300 
     80 H39        19.6812   -2.1841   20.2834 H         1 <0>         0.0300 
     81 H40        20.7773   -1.7192   15.2842 H         1 <0>         0.0600 
     82 H41        20.2477   -4.1597   13.7011 H         1 <0>         0.0600 
     83 H42        18.7056   -4.5256    9.7150 H         1 <0>         0.0600 
     84 H43        24.0631   -3.4152   14.4243 H         1 <0>         0.3100 
     85 H44        23.2529   -1.9915   14.0995 H         1 <0>         0.3100 
@<TRIPOS>BOND
     1    1   25 1    
     2    1   42 1    
     3    1   43 1    
     4    1   44 1    
     5    2   26 1    
     6    2   45 1    
     7    2   46 1    
     8    2   47 1    
     9    3   32 1    
    10    3   48 1    
    11    3   49 1    
    12    3   50 1    
    13    4   32 1    
    14    4   51 1    
    15    4   52 1    
    16    4   53 1    
    17    5    7 ar   
    18    5    8 ar   
    19    5   54 1    
    20    6    9 ar   
    21    6   10 ar   
    22    6   55 1    
    23    7   12 ar   
    24    7   56 1    
    25    8   13 ar   
    26    8   57 1    
    27    9   14 ar   
    28    9   58 1    
    29   10   15 ar   
    30   10   59 1    
    31   11   16 ar   
    32   11   17 ar   
    33   11   60 1    
    34   12   27 ar   
    35   12   61 1    
    36   13   27 ar   
    37   13   62 1    
    38   14   28 ar   
    39   14   63 1    
    40   15   28 ar   
    41   15   64 1    
    42   16   25 ar   
    43   16   65 1    
    44   17   26 ar   
    45   17   66 1    
    46   18   30 1    
    47   18   34 1    
    48   18   67 1    
    49   18   68 1    
    50   19   31 1    
    51   19   34 1    
    52   19   69 1    
    53   19   70 1    
    54   20   27 1    
    55   20   35 1    
    56   20   71 1    
    57   20   72 1    
    58   21   30 1    
    59   21   35 1    
    60   21   73 1    
    61   21   74 1    
    62   22   31 1    
    63   22   36 1    
    64   22   75 1    
    65   22   76 1    
    66   23   32 1    
    67   23   36 1    
    68   23   77 1    
    69   23   78 1    
    70   24   33 1    
    71   24   40 1    
    72   24   79 1    
    73   24   80 1    
    74   25   29 ar   
    75   26   29 ar   
    76   28   41 1    
    77   29   40 1    
    78   30   31 1    
    79   30   81 1    
    80   31   82 1    
    81   32   83 1    
    82   33   35 am   BACKBONE|DICT|INTERRES
    83   33   37 2    
    84   34   84 1    
    85   34   85 1    
    86   36   41 1    
    87   38   41 2    
    88   39   41 2    
@<TRIPOS>SUBSTRUCTURE
     1 <0>         1 GROUP             0       ****    0 ROOT    
@<TRIPOS>MOLECULE
hivpr-ligand
85   88    1
SMALL
USER_CHARGES


@<TRIPOS>ATOM
      1 C1         17.3738   -0.4572   20.8829 C.3       1 <0>        -0.0650 
      2 C2         19.8301    0.7728   16.5977 C.3       1 <0>        -0.0650 
      3 C3         19.1740   -3.5357    8.8264 C.3       1 <0>        -0.1800 
      4 C4         20.7967   -1.9593    9.9168 C.3       1 <0>        -0.1800 
      5 C5         15.2079   -5.1466   18.9302 C.ar      1 <0>        -0.1150 
      6 C6         18.4614    2.0579   10.0193 C.ar      1 <0>        -0.1150 
      7 C7         16.3813   -5.9228   18.9104 C.ar      1 <0>        -0.1150 
      8 C8         15.0687   -4.0678   18.0377 C.ar      1 <0>        -0.1150 
      9 C9         19.4554    1.6486   10.9252 C.ar      1 <0>        -0.1150 
     10 C10        17.2093    1.4184   10.0246 C.ar      1 <0>        -0.1150 
     11 C11        17.0112    2.5213   18.5083 C.ar      1 <0>        -0.1150 
     12 C12        17.4213   -5.6034   18.0161 C.ar      1 <0>        -0.1150 
     13 C13        16.0959   -3.7739   17.1179 C.ar      1 <0>        -0.1150 
     14 C14        19.2076    0.5847   11.8157 C.ar      1 <0>        -0.1150 
     15 C15        16.9560    0.3659   10.9219 C.ar      1 <0>        -0.1150 
     16 C16        16.8111    1.6412   19.5888 C.ar      1 <0>        -0.1150 
     17 C17        17.9903    2.2386   17.5387 C.ar      1 <0>        -0.1150 
     18 C18        23.0848   -3.8712   15.0380 C.3       1 <0>         0.1700 
     19 C19        22.2115   -3.7971   12.8794 C.3       1 <0>         0.1700 
     20 C20        18.4265   -4.1468   16.1802 C.3       1 <0>         0.0650 
     21 C21        20.8929   -4.5416   16.2152 C.3       1 <0>        -0.0500 
     22 C22        20.2527   -2.3041   13.4385 C.3       1 <0>         0.0588 
     23 C23        19.2058   -3.3845   11.3544 C.3       1 <0>         0.0588 
     24 C24        18.7896   -2.0923   18.3018 C.3       1 <0>         0.1400 
     25 C25        17.5959    0.4773   19.7092 C.ar      1 <0>        -0.1150 
     26 C26        18.7777    1.0751   17.6470 C.ar      1 <0>        -0.1150 
     27 C27        17.2879   -4.5246   17.1209 C.ar      1 <0>        -0.1150 
     28 C28        17.9659   -0.0739   11.7926 C.ar      1 <0>         0.1567 
     29 C29        18.5838    0.1967   18.7374 C.ar      1 <0>         0.0850 
     30 C30        21.5973   -3.5794   15.2315 C.3       1 <0>        -0.0600 
     31 C31        20.9982   -3.6048   13.8000 C.3       1 <0>        -0.0233 
     32 C32        19.4081   -2.6125   10.0297 C.3       1 <0>        -0.0233 
     33 C33        19.9164   -3.0422   17.8740 C.2       1 <0>         0.5000 
     34 N1         23.3609   -3.3835   13.6832 N.4       1 <0>        -0.2000 
     35 N2         19.7243   -3.8982   16.8371 N.am      1 <0>        -0.1400 
     36 N3         19.0884   -2.5159   12.5510 N.pl3     1 <0>        -0.5376 
     37 O1         20.9980   -2.9699   18.4631 O.2       1 <0>        -0.5000 
     38 O2         17.6102   -1.1447   14.1884 O.2       1 <0>        -0.4680 
     39 O3         16.5419   -2.2759   12.1641 O.2       1 <0>        -0.4680 
     40 O4         19.3707   -0.9185   18.8527 O.3       1 <0>        -0.2850 
     41 S1         17.6640   -1.5445   12.7749 S.o2      1 <0>         0.8327 
     42 H1         16.8926    0.0616   21.7143 H         1 <0>         0.0600 
     43 H2         16.7341   -1.2881   20.5819 H         1 <0>         0.0600 
     44 H3         18.3214   -0.8598   21.2409 H         1 <0>         0.0600 
     45 H4         19.7156    1.4158   15.7264 H         1 <0>         0.0600 
     46 H5         20.8279    0.9269   17.0089 H         1 <0>         0.0600 
     47 H6         19.7519   -0.2594   16.2591 H         1 <0>         0.0600 
     48 H7         19.8802   -4.3678    8.8253 H         1 <0>         0.0600 
     49 H8         18.1640   -3.9495    8.8420 H         1 <0>         0.0600 
     50 H9         19.2963   -2.9844    7.8956 H         1 <0>         0.0600 
     51 H10        21.5861   -2.7140    9.8975 H         1 <0>         0.0600 
     52 H11        20.8820   -1.3734    9.0015 H         1 <0>         0.0600 
     53 H12        20.9961   -1.2848   10.7478 H         1 <0>         0.0600 
     54 H13        14.4143   -5.3788   19.6277 H         1 <0>         0.1150 
     55 H14        18.6527    2.8720    9.3348 H         1 <0>         0.1150 
     56 H15        16.4827   -6.7532   19.5914 H         1 <0>         0.1150 
     57 H16        14.1701   -3.4664   18.0485 H         1 <0>         0.1150 
     58 H17        20.4175    2.1381   10.9244 H         1 <0>         0.1150 
     59 H18        16.4350    1.7414    9.3440 H         1 <0>         0.1150 
     60 H19        16.4093    3.4138   18.4192 H         1 <0>         0.1150 
     61 H20        18.3303   -6.1832   18.0165 H         1 <0>         0.1150 
     62 H21        15.9819   -2.9505   16.4296 H         1 <0>         0.1150 
     63 H22        19.9803    0.2689   12.4963 H         1 <0>         0.1150 
     64 H23        15.9997   -0.1265   10.9252 H         1 <0>         0.1150 
     65 H24        16.0532    1.8557   20.3284 H         1 <0>         0.1150 
     66 H25        18.1340    2.9207   16.7133 H         1 <0>         0.1150 
     67 H26        23.2867   -4.9407   15.0796 H         1 <0>         0.0600 
     68 H27        23.7105   -3.3756   15.7790 H         1 <0>         0.0600 
     69 H28        22.3249   -4.8480   12.6139 H         1 <0>         0.0600 
     70 H29        22.1574   -3.2235   11.9575 H         1 <0>         0.0600 
     71 H30        18.1550   -3.2628   15.6037 H         1 <0>         0.0600 
     72 H31        18.5108   -4.9493   15.4477 H         1 <0>         0.0600 
     73 H32        20.6224   -5.4788   15.7269 H         1 <0>         0.0600 
     74 H33        21.6042   -4.8483   16.9827 H         1 <0>         0.0600 
     75 H34        20.9335   -1.5774   12.9978 H         1 <0>         0.0733 
     76 H35        19.8959   -1.8438   14.3588 H         1 <0>         0.0733 
     77 H36        19.9883   -4.1304   11.4684 H         1 <0>         0.0733 
     78 H37        18.2869   -3.9679   11.2875 H         1 <0>         0.0733 
     79 H38        18.1605   -1.8339   17.4499 H         1 <0>         0.0300 
     80 H39        18.1671   -2.5811   19.0523 H         1 <0>         0.0300 
     81 H40        21.5578   -2.5599   15.6216 H         1 <0>         0.0600 
     82 H41        20.3244   -4.4562   13.7017 H         1 <0>         0.0600 
     83 H42        18.6582   -1.8278    9.9599 H         1 <0>         0.0600 
     84 H43        24.2346   -3.7401   13.3214 H         1 <0>         0.3100 
     85 H44        23.3914   -2.3638   13.7080 H         1 <0>         0.3100 
@<TRIPOS>BOND
     1    1   25 1    
     2    1   42 1    
     3    1   43 1    
     4    1   44 1    
     5    2   26 1    
     6    2   45 1    
     7    2   46 1    
     8    2   47 1    
     9    3   32 1    
    10    3   48 1    
    11    3   49 1    
    12    3   50 1    
    13    4   32 1    
    14    4   51 1    
    15    4   52 1    
    16    4   53 1    
    17    5    7 ar   
    18    5    8 ar   
    19    5   54 1    
    20    6    9 ar   
    21    6   10 ar   
    22    6   55 1    
    23    7   12 ar   
    24    7   56 1    
    25    8   13 ar   
    26    8   57 1    
    27    9   14 ar   
    28    9   58 1    
    29   10   15 ar   
    30   10   59 1    
    31   11   16 ar   
    32   11   17 ar   
    33   11   60 1    
    34   12   27 ar   
    35   12   61 1    
    36   13   27 ar   
    37   13   62 1    
    38   14   28 ar   
    39   14   63 1    
    40   15   28 ar   
    41   15   64 1    
    42   16   25 ar   
    43   16   65 1    
    44   17   26 ar   
    45   17   66 1    
    46   18   30 1    
    47   18   34 1    
    48   18   67 1    
    49   18   68 1    
    50   19   31 1    
    51   19   34 1    
    52   19   69 1    
    53   19   70 1    
    54   20   27 1    
    55   20   35 1    
    56   20   71 1    
    57   20   72 1    
    58   21   30 1    
    59   21   35 1    
    60   21   73 1    
    61   21   74 1    
    62   22   31 1    
    63   22   36 1    
    64   22   75 1    
    65   22   76 1    
    66   23   32 1    
    67   23   36 1    
    68   23   77 1    
    69   23   78 1    
    70   24   33 1    
    71   24   40 1    
    72   24   79 1    
    73   24   80 1    
    74   25   29 ar   
    75   26   29 ar   
    76   28   41 1    
    77   29   40 1    
    78   30   31 1    
    79   30   81 1    
    80   31   82 1    
    81   32   83 1    
    82   33   35 am   BACKBONE|DICT|INTERRES
    83   33   37 2    
    84   34   84 1    
    85   34   85 1    
    86   36   41 1    
    87   38   41 2    
    88   39   41 2    
@<TRIPOS>SUBSTRUCTURE
     1 <0>         1 GROUP             0       ****    0 ROOT    
@<TRIPOS>MOLECULE
hivpr-ligand
85   88    1
SMALL
USER_CHARGES


@<TRIPOS>ATOM
      1 C1         24.5321   -0.5878   21.2262 C.3       1 <0>        -0.0650 
      2 C2         21.0885    0.6862   17.6861 C.3       1 <0>        -0.0650 
      3 C3         20.9364   -2.7780    8.2851 C.3       1 <0>        -0.1800 
      4 C4         21.0067   -0.8079    9.8610 C.3       1 <0>        -0.1800 
      5 C5         16.1487   -5.4711   18.4835 C.ar      1 <0>        -0.1150 
      6 C6         18.4293    2.2365    9.5965 C.ar      1 <0>        -0.1150 
      7 C7         17.1636   -5.7875   17.5611 C.ar      1 <0>        -0.1150 
      8 C8         16.1493   -4.2183   19.1249 C.ar      1 <0>        -0.1150 
      9 C9         18.3635    2.1459   11.0013 C.ar      1 <0>        -0.1150 
     10 C10        18.3106    1.0757    8.8059 C.ar      1 <0>        -0.1150 
     11 C11        22.8131    2.7352   20.4163 C.ar      1 <0>        -0.1150 
     12 C12        18.1763   -4.8507   17.2784 C.ar      1 <0>        -0.1150 
     13 C13        17.1615   -3.2810   18.8422 C.ar      1 <0>        -0.1150 
     14 C14        18.1744    0.8939   11.6185 C.ar      1 <0>        -0.1150 
     15 C15        18.1211   -0.1787    9.4187 C.ar      1 <0>        -0.1150 
     16 C16        23.6348    1.7718   21.0294 C.ar      1 <0>        -0.1150 
     17 C17        21.9949    2.3739   19.3303 C.ar      1 <0>        -0.1150 
     18 C18        22.9280   -3.1811   14.9251 C.3       1 <0>         0.1700 
     19 C19        22.1299   -3.7037   12.8345 C.3       1 <0>         0.1700 
     20 C20        19.2876   -2.5961   17.5689 C.3       1 <0>         0.0650 
     21 C21        20.8221   -3.8933   16.1208 C.3       1 <0>        -0.0500 
     22 C22        20.1708   -2.1445   13.0355 C.3       1 <0>         0.0588 
     23 C23        20.1057   -3.0571   10.6589 C.3       1 <0>         0.0588 
     24 C24        21.6837   -1.9436   19.2954 C.3       1 <0>         0.1400 
     25 C25        23.6473    0.4445   20.5539 C.ar      1 <0>        -0.1150 
     26 C26        21.9974    1.0493   18.8470 C.ar      1 <0>        -0.1150 
     27 C27        18.1805   -3.5891   17.9106 C.ar      1 <0>        -0.1150 
     28 C28        18.0479   -0.2633   10.8242 C.ar      1 <0>         0.1567 
     29 C29        22.8390    0.0831   19.4518 C.ar      1 <0>         0.0850 
     30 C30        21.4143   -3.0008   15.0338 C.3       1 <0>        -0.0600 
     31 C31        20.8842   -3.3478   13.6453 C.3       1 <0>        -0.0233 
     32 C32        20.2446   -2.0841    9.4671 C.3       1 <0>        -0.0233 
     33 C33        21.5876   -3.1547   18.3537 C.2       1 <0>         0.5000 
     34 N1         23.2013   -2.9835   13.5085 N.4       1 <0>        -0.2000 
     35 N2         20.6246   -3.1874   17.3978 N.am      1 <0>        -0.1400 
     36 N3         19.3983   -2.4583   11.8126 N.pl3     1 <0>        -0.5376 
     37 O1         22.4034   -4.0689   18.4841 O.2       1 <0>        -0.5000 
     38 O2         17.2206   -1.6130   12.9552 O.2       1 <0>        -0.4680 
     39 O3         17.0794   -2.7174   10.6595 O.2       1 <0>        -0.4680 
     40 O4         22.8637   -1.2099   18.9958 O.3       1 <0>        -0.2850 
     41 S1         17.7801   -1.8466   11.6149 S.o2      1 <0>         0.8327 
     42 H1         24.9307   -0.2148   22.1700 H         1 <0>         0.0600 
     43 H2         23.9669   -1.4964   21.4360 H         1 <0>         0.0600 
     44 H3         25.3707   -0.8449   20.5793 H         1 <0>         0.0600 
     45 H4         20.1767    1.2835   17.7081 H         1 <0>         0.0600 
     46 H5         21.5939    0.8736   16.7388 H         1 <0>         0.0600 
     47 H6         20.7968   -0.3637   17.7203 H         1 <0>         0.0600 
     48 H7         21.9459   -3.0969    8.5474 H         1 <0>         0.0600 
     49 H8         20.3812   -3.6600    7.9649 H         1 <0>         0.0600 
     50 H9         21.0126   -2.1101    7.4264 H         1 <0>         0.0600 
     51 H10        22.0118   -1.0399   10.2150 H         1 <0>         0.0600 
     52 H11        21.1016   -0.1283    9.0137 H         1 <0>         0.0600 
     53 H12        20.4948   -0.2653   10.6561 H         1 <0>         0.0600 
     54 H13        15.3716   -6.1896   18.7001 H         1 <0>         0.1150 
     55 H14        18.5816    3.1967    9.1250 H         1 <0>         0.1150 
     56 H15        17.1651   -6.7496   17.0699 H         1 <0>         0.1150 
     57 H16        15.3716   -3.9761   19.8343 H         1 <0>         0.1150 
     58 H17        18.4652    3.0359   11.6055 H         1 <0>         0.1150 
     59 H18        18.3719    1.1471    7.7296 H         1 <0>         0.1150 
     60 H19        22.8052    3.7510   20.7837 H         1 <0>         0.1150 
     61 H20        18.9489   -5.1051   16.5673 H         1 <0>         0.1150 
     62 H21        17.1396   -2.3270   19.3471 H         1 <0>         0.1150 
     63 H22        18.1301    0.8219   12.6952 H         1 <0>         0.1150 
     64 H23        18.0330   -1.0665    8.8098 H         1 <0>         0.1150 
     65 H24        24.2538    2.0571   21.8676 H         1 <0>         0.1150 
     66 H25        21.3604    3.1182   18.8715 H         1 <0>         0.1150 
     67 H26        23.2638   -4.1554   15.2801 H         1 <0>         0.0600 
     68 H27        23.4431   -2.4164   15.5065 H         1 <0>         0.0600 
     69 H28        22.3142   -4.7771   12.7928 H         1 <0>         0.0600 
     70 H29        22.0325   -3.3400   11.8116 H         1 <0>         0.0600 
     71 H30        19.3258   -1.8180   18.3331 H         1 <0>         0.0600 
     72 H31        18.9903   -2.0729   16.6589 H         1 <0>         0.0600 
     73 H32        19.8618   -4.2911   15.7918 H         1 <0>         0.0600 
     74 H33        21.4447   -4.7787   16.2630 H         1 <0>         0.0600 
     75 H34        20.8984   -1.3615   12.8236 H         1 <0>         0.0733 
     76 H35        19.4858   -1.7023   13.7578 H         1 <0>         0.0733 
     77 H36        21.1021   -3.3761   10.9641 H         1 <0>         0.0733 
     78 H37        19.5933   -3.9707   10.3585 H         1 <0>         0.0733 
     79 H38        20.8080   -1.3098   19.1519 H         1 <0>         0.0300 
     80 H39        21.6971   -2.2532   20.3386 H         1 <0>         0.0300 
     81 H40        21.1672   -1.9694   15.2856 H         1 <0>         0.0600 
     82 H41        20.1733   -4.1738   13.6676 H         1 <0>         0.0600 
     83 H42        19.2545   -1.7916    9.1184 H         1 <0>         0.0600 
     84 H43        24.1028   -3.3649   13.2596 H         1 <0>         0.3100 
     85 H44        23.2311   -2.0068   13.2529 H         1 <0>         0.3100 
@<TRIPOS>BOND
     1    1   25 1    
     2    1   42 1    
     3    1   43 1    
     4    1   44 1    
     5    2   26 1    
     6    2   45 1    
     7    2   46 1    
     8    2   47 1    
     9    3   32 1    
    10    3   48 1    
    11    3   49 1    
    12    3   50 1    
    13    4   32 1    
    14    4   51 1    
    15    4   52 1    
    16    4   53 1    
    17    5    7 ar   
    18    5    8 ar   
    19    5   54 1    
    20    6    9 ar   
    21    6   10 ar   
    22    6   55 1    
    23    7   12 ar   
    24    7   56 1    
    25    8   13 ar   
    26    8   57 1    
    27    9   14 ar   
    28    9   58 1    
    29   10   15 ar   
    30   10   59 1    
    31   11   16 ar   
    32   11   17 ar   
    33   11   60 1    
    34   12   27 ar   
    35   12   61 1    
    36   13   27 ar   
    37   13   62 1    
    38   14   28 ar   
    39   14   63 1    
    40   15   28 ar   
    41   15   64 1    
    42   16   25 ar   
    43   16   65 1    
    44   17   26 ar   
    45   17   66 1    
    46   18   30 1    
    47   18   34 1    
    48   18   67 1    
    49   18   68 1    
    50   19   31 1    
    51   19   34 1    
    52   19   69 1    
    53   19   70 1    
    54   20   27 1    
    55   20   35 1    
    56   20   71 1    
    57   20   72 1    
    58   21   30 1    
    59   21   35 1    
    60   21   73 1    
    61   21   74 1    
    62   22   31 1    
    63   22   36 1    
    64   22   75 1    
    65   22   76 1    
    66   23   32 1    
    67   23   36 1    
    68   23   77 1    
    69   23   78 1    
    70   24   33 1    
    71   24   40 1    
    72   24   79 1    
    73   24   80 1    
    74   25   29 ar   
    75   26   29 ar   
    76   28   41 1    
    77   29   40 1    
    78   30   31 1    
    79   30   81 1    
    80   31   82 1    
    81   32   83 1    
    82   33   35 am   BACKBONE|DICT|INTERRES
    83   33   37 2    
    84   34   84 1    
    85   34   85 1    
    86   36   41 1    
    87   38   41 2    
    88   39   41 2    
@<TRIPOS>SUBSTRUCTURE
     1 <0>         1 GROUP             0       ****    0 ROOT    
@<TRIPOS>MOLECULE
hivpr-ligand
85   88    1
SMALL
USER_CHARGES


@<TRIPOS>ATOM
      1 C1         24.6601   -1.6482   18.5252 C.3       1 <0>        -0.0650 
      2 C2         20.9548    0.3076   21.4503 C.3       1 <0>        -0.0650 
      3 C3         19.5096   -5.1995    9.3622 C.3       1 <0>        -0.1800 
      4 C4         17.6691   -5.9442   10.9144 C.3       1 <0>        -0.1800 
      5 C5         15.7040   -4.7085   19.4603 C.ar      1 <0>        -0.1150 
      6 C6         17.2499    1.8156   11.2428 C.ar      1 <0>        -0.1150 
      7 C7         16.6152   -5.3820   18.6251 C.ar      1 <0>        -0.1150 
      8 C8         15.7941   -3.3109   19.6108 C.ar      1 <0>        -0.1150 
      9 C9         18.2979    1.4372   12.0952 C.ar      1 <0>        -0.1150 
     10 C10        17.1155    1.1937    9.9865 C.ar      1 <0>        -0.1150 
     11 C11        24.0802    1.8694   19.8931 C.ar      1 <0>        -0.1150 
     12 C12        17.6094   -4.6592   17.9373 C.ar      1 <0>        -0.1150 
     13 C13        16.7894   -2.5900   18.9217 C.ar      1 <0>        -0.1150 
     14 C14        19.1953    0.4310   11.6986 C.ar      1 <0>        -0.1150 
     15 C15        17.9863    0.1591    9.5985 C.ar      1 <0>        -0.1150 
     16 C16        24.6511    0.7702   19.2268 C.ar      1 <0>        -0.1150 
     17 C17        22.8711    1.7114   20.5950 C.ar      1 <0>        -0.1150 
     18 C18        22.6387   -3.4087   15.0824 C.3       1 <0>         0.1700 
     19 C19        22.2222   -4.0362   12.8646 C.3       1 <0>         0.1700 
     20 C20        18.7385   -2.4411   17.3030 C.3       1 <0>         0.0650 
     21 C21        20.2302   -3.8787   15.9330 C.3       1 <0>        -0.0500 
     22 C22        20.2688   -2.4343   12.6248 C.3       1 <0>         0.0588 
     23 C23        18.6116   -3.6132   11.1777 C.3       1 <0>         0.0588 
     24 C24        20.9253   -1.9523   19.2230 C.3       1 <0>         0.1400 
     25 C25        24.0096   -0.4858   19.2482 C.ar      1 <0>        -0.1150 
     26 C26        22.2229    0.4587   20.6286 C.ar      1 <0>        -0.1150 
     27 C27        17.7053   -3.2557   18.0789 C.ar      1 <0>        -0.1150 
     28 C28        19.0244   -0.2319   10.4649 C.ar      1 <0>         0.1567 
     29 C29        22.7776   -0.6427   19.9308 C.ar      1 <0>         0.0850 
     30 C30        21.1321   -3.1807   14.8865 C.3       1 <0>        -0.0600 
     31 C31        20.8531   -3.6144   13.4229 C.3       1 <0>        -0.0233 
     32 C32        18.9269   -5.0727   10.7782 C.3       1 <0>        -0.0233 
     33 C33        21.0422   -2.9931   18.0972 C.2       1 <0>         0.5000 
     34 N1         23.2088   -3.3835   13.7314 N.4       1 <0>        -0.2000 
     35 N2         20.0609   -3.0806   17.1623 N.am      1 <0>        -0.1400 
     36 N3         19.8243   -2.7733   11.2583 N.pl3     1 <0>        -0.5376 
     37 O1         22.0477   -3.7048   18.0472 O.2       1 <0>        -0.5000 
     38 O2         19.6326   -2.1597    8.7327 O.2       1 <0>        -0.4680 
     39 O3         21.4965   -1.1291   10.1241 O.2       1 <0>        -0.4680 
     40 O4         22.1593   -1.8711   19.9393 O.3       1 <0>        -0.2850 
     41 S1         20.1074   -1.5910   10.0044 S.o2      1 <0>         0.8327 
     42 H1         25.7443   -1.5982   18.6224 H         1 <0>         0.0600 
     43 H2         24.3395   -2.6067   18.9251 H         1 <0>         0.0600 
     44 H3         24.4083   -1.6179   17.4654 H         1 <0>         0.0600 
     45 H4         20.9069    1.0612   22.2362 H         1 <0>         0.0600 
     46 H5         20.0750    0.4153   20.8150 H         1 <0>         0.0600 
     47 H6         20.9218   -0.6713   21.9337 H         1 <0>         0.0600 
     48 H7         18.8216   -4.7965    8.6158 H         1 <0>         0.0600 
     49 H8         20.4532   -4.6607    9.2739 H         1 <0>         0.0600 
     50 H9         19.7084   -6.2410    9.1124 H         1 <0>         0.0600 
     51 H10        16.8722   -5.6003   10.2516 H         1 <0>         0.0600 
     52 H11        17.8783   -6.9863   10.6717 H         1 <0>         0.0600 
     53 H12        17.2800   -5.9233   11.9319 H         1 <0>         0.0600 
     54 H13        14.9384   -5.2613   19.9862 H         1 <0>         0.1150 
     55 H14        16.5638    2.5962   11.5360 H         1 <0>         0.1150 
     56 H15        16.5481   -6.4536   18.5075 H         1 <0>         0.1150 
     57 H16        15.0934   -2.7893   20.2481 H         1 <0>         0.1150 
     58 H17        18.4088    1.9230   13.0509 H         1 <0>         0.1150 
     59 H18        16.3240    1.5061    9.3253 H         1 <0>         0.1150 
     60 H19        24.5785    2.8258   19.8783 H         1 <0>         0.1150 
     61 H20        18.2891   -5.2009   17.2970 H         1 <0>         0.1150 
     62 H21        16.8370   -1.5170   19.0362 H         1 <0>         0.1150 
     63 H22        20.0091    0.1769   12.3565 H         1 <0>         0.1150 
     64 H23        17.8542   -0.3254    8.6432 H         1 <0>         0.1150 
     65 H24        25.5879    0.8941   18.7025 H         1 <0>         0.1150 
     66 H25        22.4519    2.5528   21.1253 H         1 <0>         0.1150 
     67 H26        22.8392   -4.3879   15.5246 H         1 <0>         0.0600 
     68 H27        23.1005   -2.6507   15.7165 H         1 <0>         0.0600 
     69 H28        22.3424   -5.1167   12.9595 H         1 <0>         0.0600 
     70 H29        22.3652   -3.7774   11.8152 H         1 <0>         0.0600 
     71 H30        18.8213   -1.4470   17.7404 H         1 <0>         0.0600 
     72 H31        18.3200   -2.2464   16.3141 H         1 <0>         0.0600 
     73 H32        19.2524   -4.0575   15.4858 H         1 <0>         0.0600 
     74 H33        20.6096   -4.8740   16.1726 H         1 <0>         0.0600 
     75 H34        21.0413   -1.6682   12.5717 H         1 <0>         0.0733 
     76 H35        19.4305   -1.9966   13.1668 H         1 <0>         0.0733 
     77 H36        18.0971   -3.5991   12.1392 H         1 <0>         0.0733 
     78 H37        17.9107   -3.1723   10.4671 H         1 <0>         0.0733 
     79 H38        20.6588   -0.9850   18.7939 H         1 <0>         0.0300 
     80 H39        20.1327   -2.2462   19.9108 H         1 <0>         0.0300 
     81 H40        20.9635   -2.1046   14.9604 H         1 <0>         0.0600 
     82 H41        20.1665   -4.4602   13.4031 H         1 <0>         0.0600 
     83 H42        19.6680   -5.4722   11.4693 H         1 <0>         0.0600 
     84 H43        24.1191   -3.8183   13.6948 H         1 <0>         0.3100 
     85 H44        23.2858   -2.3972   13.4673 H         1 <0>         0.3100 
@<TRIPOS>BOND
     1    1   25 1    
     2    1   42 1    
     3    1   43 1    
     4    1   44 1    
     5    2   26 1    
     6    2   45 1    
     7    2   46 1    
     8    2   47 1    
     9    3   32 1    
    10    3   48 1    
    11    3   49 1    
    12    3   50 1    
    13    4   32 1    
    14    4   51 1    
    15    4   52 1    
    16    4   53 1    
    17    5    7 ar   
    18    5    8 ar   
    19    5   54 1    
    20    6    9 ar   
    21    6   10 ar   
    22    6   55 1    
    23    7   12 ar   
    24    7   56 1    
    25    8   13 ar   
    26    8   57 1    
    27    9   14 ar   
    28    9   58 1    
    29   10   15 ar   
    30   10   59 1    
    31   11   16 ar   
    32   11   17 ar   
    33   11   60 1    
    34   12   27 ar   
    35   12   61 1    
    36   13   27 ar   
    37   13   62 1    
    38   14   28 ar   
    39   14   63 1    
    40   15   28 ar   
    41   15   64 1    
    42   16   25 ar   
    43   16   65 1    
    44   17   26 ar   
    45   17   66 1    
    46   18   30 1    
    47   18   34 1    
    48   18   67 1    
    49   18   68 1    
    50   19   31 1    
    51   19   34 1    
    52   19   69 1    
    53   19   70 1    
    54   20   27 1    
    55   20   35 1    
    56   20   71 1    
    57   20   72 1    
    58   21   30 1    
    59   21   35 1    
    60   21   73 1    
    61   21   74 1    
    62   22   31 1    
    63   22   36 1    
    64   22   75 1    
    65   22   76 1    
    66   23   32 1    
    67   23   36 1    
    68   23   77 1    
    69   23   78 1    
    70   24   33 1    
    71   24   40 1    
    72   24   79 1    
    73   24   80 1    
    74   25   29 ar   
    75   26   29 ar   
    76   28   41 1    
    77   29   40 1    
    78   30   31 1    
    79   30   81 1    
    80   31   82 1    
    81   32   83 1    
    82   33   35 am   BACKBONE|DICT|INTERRES
    83   33   37 2    
    84   34   84 1    
    85   34   85 1    
    86   36   41 1    
    87   38   41 2    
    88   39   41 2    
@<TRIPOS>SUBSTRUCTURE
     1 <0>         1 GROUP             0       ****    0 ROOT    
@<TRIPOS>MOLECULE
hivpr-ligand
85   88    1
SMALL
USER_CHARGES


@<TRIPOS>ATOM
      1 C1         24.5635   -1.6108   18.5626 C.3       1 <0>        -0.0650 
      2 C2         20.9410    0.2343   21.6547 C.3       1 <0>        -0.0650 
      3 C3         16.8334   -3.7226   11.3642 C.3       1 <0>        -0.1800 
      4 C4         17.4157   -5.7039    9.9069 C.3       1 <0>        -0.1800 
      5 C5         15.6307   -4.4326   19.6819 C.ar      1 <0>        -0.1150 
      6 C6         17.2728    1.4968   10.8050 C.ar      1 <0>        -0.1150 
      7 C7         16.4806   -5.1947   18.8584 C.ar      1 <0>        -0.1150 
      8 C8         15.7993   -3.0384   19.7641 C.ar      1 <0>        -0.1150 
      9 C9         18.2842    1.2732   11.7526 C.ar      1 <0>        -0.1150 
     10 C10        17.2094    0.7045    9.6447 C.ar      1 <0>        -0.1150 
     11 C11        24.0648    1.8375   20.1293 C.ar      1 <0>        -0.1150 
     12 C12        17.4976   -4.5592   18.1182 C.ar      1 <0>        -0.1150 
     13 C13        16.8172   -2.4033   19.0251 C.ar      1 <0>        -0.1150 
     14 C14        19.2091    0.2343   11.5436 C.ar      1 <0>        -0.1150 
     15 C15        18.1102   -0.3554    9.4424 C.ar      1 <0>        -0.1150 
     16 C16        24.6094    0.7675   19.3953 C.ar      1 <0>        -0.1150 
     17 C17        22.8657    1.6589   20.8455 C.ar      1 <0>        -0.1150 
     18 C18        22.6163   -3.5411   15.2416 C.3       1 <0>         0.1700 
     19 C19        22.2775   -3.9789   12.9548 C.3       1 <0>         0.1700 
     20 C20        18.7332   -2.4406   17.3595 C.3       1 <0>         0.0650 
     21 C21        20.1999   -3.9869   16.0819 C.3       1 <0>        -0.0500 
     22 C22        19.9990   -2.8053   12.7899 C.3       1 <0>         0.0588 
     23 C23        19.2671   -4.4026   10.9675 C.3       1 <0>         0.0588 
     24 C24        20.9023   -1.9280   19.2862 C.3       1 <0>         0.1400 
     25 C25        23.9527   -0.4798   19.3671 C.ar      1 <0>        -0.1150 
     26 C26        22.2025    0.4142   20.8280 C.ar      1 <0>        -0.1150 
     27 C27        17.6740   -3.1576   18.1941 C.ar      1 <0>        -0.1150 
     28 C28        19.1064   -0.5943   10.4048 C.ar      1 <0>         0.1567 
     29 C29        22.7372   -0.6586   20.0715 C.ar      1 <0>         0.0850 
     30 C30        21.1152   -3.3281   15.0203 C.3       1 <0>        -0.0600 
     31 C31        20.8745   -3.8133   13.5677 C.3       1 <0>        -0.0233 
     32 C32        17.8505   -4.3042   10.3719 C.3       1 <0>        -0.0233 
     33 C33        21.0087   -3.0269   18.2108 C.2       1 <0>         0.5000 
     34 N1         23.2095   -3.3831   13.9138 N.4       1 <0>        -0.2000 
     35 N2         20.0312   -3.1373   17.2757 N.am      1 <0>        -0.1400 
     36 N3         19.8459   -3.1021   11.3514 N.pl3     1 <0>        -0.5376 
     37 O1         22.0075   -3.7523   18.1979 O.2       1 <0>        -0.5000 
     38 O2         20.0750   -2.5095    8.8244 O.2       1 <0>        -0.4680 
     39 O3         21.6093   -1.3839   10.5165 O.2       1 <0>        -0.4680 
     40 O4         22.1085   -1.8802   20.0415 O.3       1 <0>        -0.2850 
     41 S1         20.2903   -1.9143   10.1544 S.o2      1 <0>         0.8327 
     42 H1         25.6498   -1.5159   18.5263 H         1 <0>         0.0600 
     43 H2         24.3316   -2.5842   18.9960 H         1 <0>         0.0600 
     44 H3         24.1825   -1.5879   17.5407 H         1 <0>         0.0600 
     45 H4         20.8669    0.9981   22.4296 H         1 <0>         0.0600 
     46 H5         20.0564    0.3004   21.0247 H         1 <0>         0.0600 
     47 H6         20.9443   -0.7351   22.1527 H         1 <0>         0.0600 
     48 H7         16.7680   -4.3223   12.2713 H         1 <0>         0.0600 
     49 H8         17.0940   -2.7041   11.6537 H         1 <0>         0.0600 
     50 H9         15.8375   -3.6851   10.9231 H         1 <0>         0.0600 
     51 H10        17.4169   -6.4166   10.7309 H         1 <0>         0.0600 
     52 H11        16.4099   -5.6989    9.4961 H         1 <0>         0.0600 
     53 H12        18.0810   -6.0855    9.1360 H         1 <0>         0.0600 
     54 H13        14.8464   -4.9173   20.2453 H         1 <0>         0.1150 
     55 H14        16.5492    2.2833   10.9582 H         1 <0>         0.1150 
     56 H15        16.3531   -6.2651   18.7909 H         1 <0>         0.1150 
     57 H16        15.1418   -2.4514   20.3922 H         1 <0>         0.1150 
     58 H17        18.3563    1.9007   12.6300 H         1 <0>         0.1150 
     59 H18        16.4334    0.9014    8.9249 H         1 <0>         0.1150 
     60 H19        24.5755    2.7897   20.1529 H         1 <0>         0.1150 
     61 H20        18.1324   -5.1648   17.4885 H         1 <0>         0.1150 
     62 H21        16.9246   -1.3313   19.0912 H         1 <0>         0.1150 
     63 H22        20.0092    0.0946   12.2532 H         1 <0>         0.1150 
     64 H23        18.0427   -0.9667    8.5553 H         1 <0>         0.1150 
     65 H24        25.5372    0.9032   18.8572 H         1 <0>         0.1150 
     66 H25        22.4620    2.4802   21.4189 H         1 <0>         0.1150 
     67 H26        22.8270   -4.5493   15.6020 H         1 <0>         0.0600 
     68 H27        23.0497   -2.8261   15.9397 H         1 <0>         0.0600 
     69 H28        22.5151   -5.0379   12.8455 H         1 <0>         0.0600 
     70 H29        22.3931   -3.5174   11.9760 H         1 <0>         0.0600 
     71 H30        18.8528   -1.4199   17.7180 H         1 <0>         0.0600 
     72 H31        18.3177   -2.3089   16.3600 H         1 <0>         0.0600 
     73 H32        19.2240   -4.1843   15.6368 H         1 <0>         0.0600 
     74 H33        20.5737   -4.9726   16.3643 H         1 <0>         0.0600 
     75 H34        20.4648   -1.8289   12.8905 H         1 <0>         0.0733 
     76 H35        19.0107   -2.7269   13.2443 H         1 <0>         0.0733 
     77 H36        19.9396   -4.8645   10.2423 H         1 <0>         0.0733 
     78 H37        19.2366   -5.0762   11.8216 H         1 <0>         0.0733 
     79 H38        20.7057   -0.9681   18.7991 H         1 <0>         0.0300 
     80 H39        20.0675   -2.1450   19.9576 H         1 <0>         0.0300 
     81 H40        20.9462   -2.2495   15.0480 H         1 <0>         0.0600 
     82 H41        20.3925   -4.7899   13.5973 H         1 <0>         0.0600 
     83 H42        17.8693   -3.6540    9.4971 H         1 <0>         0.0600 
     84 H43        24.1378   -3.7741   13.8530 H         1 <0>         0.3100 
     85 H44        23.2545   -2.3773   13.7243 H         1 <0>         0.3100 
@<TRIPOS>BOND
     1    1   25 1    
     2    1   42 1    
     3    1   43 1    
     4    1   44 1    
     5    2   26 1    
     6    2   45 1    
     7    2   46 1    
     8    2   47 1    
     9    3   32 1    
    10    3   48 1    
    11    3   49 1    
    12    3   50 1    
    13    4   32 1    
    14    4   51 1    
    15    4   52 1    
    16    4   53 1    
    17    5    7 ar   
    18    5    8 ar   
    19    5   54 1    
    20    6    9 ar   
    21    6   10 ar   
    22    6   55 1    
    23    7   12 ar   
    24    7   56 1    
    25    8   13 ar   
    26    8   57 1    
    27    9   14 ar   
    28    9   58 1    
    29   10   15 ar   
    30   10   59 1    
    31   11   16 ar   
    32   11   17 ar   
    33   11   60 1    
    34   12   27 ar   
    35   12   61 1    
    36   13   27 ar   
    37   13   62 1    
    38   14   28 ar   
    39   14   63 1    
    40   15   28 ar   
    41   15   64 1    
    42   16   25 ar   
    43   16   65 1    
    44   17   26 ar   
    45   17   66 1    
    46   18   30 1    
    47   18   34 1    
    48   18   67 1    
    49   18   68 1    
    50   19   31 1    
    51   19   34 1    
    52   19   69 1    
    53   19   70 1    
    54   20   27 1    
    55   20   35 1    
    56   20   71 1    
    57   20   72 1    
    58   21   30 1    
    59   21   35 1    
    60   21   73 1    
    61   21   74 1    
    62   22   31 1    
    63   22   36 1    
    64   22   75 1    
    65   22   76 1    
    66   23   32 1    
    67   23   36 1    
    68   23   77 1    
    69   23   78 1    
    70   24   33 1    
    71   24   40 1    
    72   24   79 1    
    73   24   80 1    
    74   25   29 ar   
    75   26   29 ar   
    76   28   41 1    
    77   29   40 1    
    78   30   31 1    
    79   30   81 1    
    80   31   82 1    
    81   32   83 1    
    82   33   35 am   BACKBONE|DICT|INTERRES
    83   33   37 2    
    84   34   84 1    
    85   34   85 1    
    86   36   41 1    
    87   38   41 2    
    88   39   41 2    
@<TRIPOS>SUBSTRUCTURE
     1 <0>         1 GROUP             0       ****    0 ROOT    
@<TRIPOS>MOLECULE
hivpr-ligand
85   88    1
SMALL
USER_CHARGES


@<TRIPOS>ATOM
      1 C1         25.0748   -1.6153   18.8563 C.3       1 <0>        -0.0650 
      2 C2         21.2209    0.4346   21.5026 C.3       1 <0>        -0.0650 
      3 C3         17.0835   -3.6594   14.4036 C.3       1 <0>        -0.1800 
      4 C4         15.6419   -4.6839   12.6833 C.3       1 <0>        -0.1800 
      5 C5         15.7373   -4.7260   19.1475 C.ar      1 <0>        -0.1150 
      6 C6         18.1871    1.6674   10.5620 C.ar      1 <0>        -0.1150 
      7 C7         16.8097   -5.3923   18.5266 C.ar      1 <0>        -0.1150 
      8 C8         15.7491   -3.3213   19.2420 C.ar      1 <0>        -0.1150 
      9 C9         17.2078    0.6626   10.6827 C.ar      1 <0>        -0.1150 
     10 C10        19.5237    1.3224   10.2813 C.ar      1 <0>        -0.1150 
     11 C11        24.4794    1.9216   20.1625 C.ar      1 <0>        -0.1150 
     12 C12        17.8928   -4.6578   18.0041 C.ar      1 <0>        -0.1150 
     13 C13        16.8314   -2.5862   18.7196 C.ar      1 <0>        -0.1150 
     14 C14        17.5637   -0.6918   10.5303 C.ar      1 <0>        -0.1150 
     15 C15        19.8844   -0.0309   10.1249 C.ar      1 <0>        -0.1150 
     16 C16        25.0727    0.8103   19.5408 C.ar      1 <0>        -0.1150 
     17 C17        23.2245    1.7896   20.7850 C.ar      1 <0>        -0.1150 
     18 C18        22.7776   -3.4013   15.0280 C.3       1 <0>         0.1700 
     19 C19        22.1388   -4.0514   12.8565 C.3       1 <0>         0.1700 
     20 C20        19.0408   -2.3895   17.5011 C.3       1 <0>         0.0650 
     21 C21        20.4837   -3.8818   16.1398 C.3       1 <0>        -0.0500 
     22 C22        19.9505   -2.7232   12.8213 C.3       1 <0>         0.0588 
     23 C23        18.0744   -4.3167   12.0910 C.3       1 <0>         0.0588 
     24 C24        21.2796   -1.8433   19.3313 C.3       1 <0>         0.1400 
     25 C25        24.4043   -0.4321   19.5236 C.ar      1 <0>        -0.1150 
     26 C26        22.5446    0.5536   20.7696 C.ar      1 <0>        -0.1150 
     27 C27        17.9160   -3.2432   18.0959 C.ar      1 <0>        -0.1150 
     28 C28        18.9008   -1.0328   10.2558 C.ar      1 <0>         0.1567 
     29 C29        23.1250   -0.5613   20.1141 C.ar      1 <0>         0.0850 
     30 C30        21.2557   -3.2013   14.9830 C.3       1 <0>        -0.0600 
     31 C31        20.8285   -3.7373   13.5941 C.3       1 <0>        -0.0233 
     32 C32        16.8580   -3.7636   12.8840 C.3       1 <0>        -0.0233 
     33 C33        21.3810   -2.9133   18.2273 C.2       1 <0>         0.5000 
     34 N1         23.1976   -3.3834   13.6234 N.4       1 <0>        -0.2000 
     35 N2         20.3568   -3.0455   17.3468 N.am      1 <0>        -0.1400 
     36 N3         19.1393   -3.3332   11.7474 N.pl3     1 <0>        -0.5376 
     37 O1         22.4047   -3.5977   18.1410 O.2       1 <0>        -0.5000 
     38 O2         18.3859   -3.4249    9.2363 O.2       1 <0>        -0.4680 
     39 O3         20.7967   -2.8350    9.8124 O.2       1 <0>        -0.4680 
     40 O4         22.4941   -1.7836   20.0741 O.3       1 <0>        -0.2850 
     41 S1         19.3593   -2.7569   10.1166 S.o2      1 <0>         0.8327 
     42 H1         26.1606   -1.5281   18.9182 H         1 <0>         0.0600 
     43 H2         24.7967   -2.5585   19.3237 H         1 <0>         0.0600 
     44 H3         24.7862   -1.6608   17.8065 H         1 <0>         0.0600 
     45 H4         21.1287    1.2028   22.2712 H         1 <0>         0.0600 
     46 H5         20.3871    0.5427   20.8084 H         1 <0>         0.0600 
     47 H6         21.1411   -0.5341   21.9989 H         1 <0>         0.0600 
     48 H7         17.4093   -4.6103   14.8235 H         1 <0>         0.0600 
     49 H8         17.8017   -2.8991   14.6761 H         1 <0>         0.0600 
     50 H9         16.1626   -3.3814   14.9160 H         1 <0>         0.0600 
     51 H10        15.8840   -5.7178   12.9241 H         1 <0>         0.0600 
     52 H11        14.8116   -4.3915   13.3257 H         1 <0>         0.0600 
     53 H12        15.2650   -4.6527   11.6602 H         1 <0>         0.0600 
     54 H13        14.9109   -5.2913   19.5531 H         1 <0>         0.1150 
     55 H14        17.9164    2.7047   10.6895 H         1 <0>         0.1150 
     56 H15        16.8040   -6.4709   18.4596 H         1 <0>         0.1150 
     57 H16        14.9249   -2.8044   19.7126 H         1 <0>         0.1150 
     58 H17        16.1835    0.9313   10.8984 H         1 <0>         0.1150 
     59 H18        20.2761    2.0939   10.2020 H         1 <0>         0.1150 
     60 H19        25.0007    2.8676   20.1819 H         1 <0>         0.1150 
     61 H20        18.6997   -5.2104   17.5506 H         1 <0>         0.1150 
     62 H21        16.8165   -1.5083   18.7956 H         1 <0>         0.1150 
     63 H22        16.8180   -1.4674   10.6214 H         1 <0>         0.1150 
     64 H23        20.9147   -0.2885    9.9281 H         1 <0>         0.1150 
     65 H24        26.0437    0.9174   19.0789 H         1 <0>         0.1150 
     66 H25        22.7914    2.6409   21.2880 H         1 <0>         0.1150 
     67 H26        23.0344   -4.3709   15.4576 H         1 <0>         0.0600 
     68 H27        23.2890   -2.6315   15.6057 H         1 <0>         0.0600 
     69 H28        22.3251   -5.1260   12.8730 H         1 <0>         0.0600 
     70 H29        22.1403   -3.7349   11.8150 H         1 <0>         0.0600 
     71 H30        19.1054   -1.4638   18.0734 H         1 <0>         0.0600 
     72 H31        18.7111   -2.0492   16.5212 H         1 <0>         0.0600 
     73 H32        19.4868   -4.1220   15.7792 H         1 <0>         0.0600 
     74 H33        20.9241   -4.8493   16.3897 H         1 <0>         0.0600 
     75 H34        20.6010   -1.9581   12.3932 H         1 <0>         0.0733 
     76 H35        19.2984   -2.1574   13.4782 H         1 <0>         0.0733 
     77 H36        17.7061   -4.7532   11.1641 H         1 <0>         0.0733 
     78 H37        18.5064   -5.1636   12.6191 H         1 <0>         0.0733 
     79 H38        21.0591   -0.8802   18.8656 H         1 <0>         0.0300 
     80 H39        20.4627   -2.0893   20.0112 H         1 <0>         0.0300 
     81 H40        21.0660   -2.1270   15.0084 H         1 <0>         0.0600 
     82 H41        20.2944   -4.6747   13.7284 H         1 <0>         0.0600 
     83 H42        16.5927   -2.7781   12.5023 H         1 <0>         0.0600 
     84 H43        24.1067   -3.7991   13.4868 H         1 <0>         0.3100 
     85 H44        23.2281   -2.3988   13.3474 H         1 <0>         0.3100 
@<TRIPOS>BOND
     1    1   25 1    
     2    1   42 1    
     3    1   43 1    
     4    1   44 1    
     5    2   26 1    
     6    2   45 1    
     7    2   46 1    
     8    2   47 1    
     9    3   32 1    
    10    3   48 1    
    11    3   49 1    
    12    3   50 1    
    13    4   32 1    
    14    4   51 1    
    15    4   52 1    
    16    4   53 1    
    17    5    7 ar   
    18    5    8 ar   
    19    5   54 1    
    20    6    9 ar   
    21    6   10 ar   
    22    6   55 1    
    23    7   12 ar   
    24    7   56 1    
    25    8   13 ar   
    26    8   57 1    
    27    9   14 ar   
    28    9   58 1    
    29   10   15 ar   
    30   10   59 1    
    31   11   16 ar   
    32   11   17 ar   
    33   11   60 1    
    34   12   27 ar   
    35   12   61 1    
    36   13   27 ar   
    37   13   62 1    
    38   14   28 ar   
    39   14   63 1    
    40   15   28 ar   
    41   15   64 1    
    42   16   25 ar   
    43   16   65 1    
    44   17   26 ar   
    45   17   66 1    
    46   18   30 1    
    47   18   34 1    
    48   18   67 1    
    49   18   68 1    
    50   19   31 1    
    51   19   34 1    
    52   19   69 1    
    53   19   70 1    
    54   20   27 1    
    55   20   35 1    
    56   20   71 1    
    57   20   72 1    
    58   21   30 1    
    59   21   35 1    
    60   21   73 1    
    61   21   74 1    
    62   22   31 1    
    63   22   36 1    
    64   22   75 1    
    65   22   76 1    
    66   23   32 1    
    67   23   36 1    
    68   23   77 1    
    69   23   78 1    
    70   24   33 1    
    71   24   40 1    
    72   24   79 1    
    73   24   80 1    
    74   25   29 ar   
    75   26   29 ar   
    76   28   41 1    
    77   29   40 1    
    78   30   31 1    
    79   30   81 1    
    80   31   82 1    
    81   32   83 1    
    82   33   35 am   BACKBONE|DICT|INTERRES
    83   33   37 2    
    84   34   84 1    
    85   34   85 1    
    86   36   41 1    
    87   38   41 2    
    88   39   41 2    
@<TRIPOS>SUBSTRUCTURE
     1 <0>         1 GROUP             0       ****    0 ROOT    
@<TRIPOS>MOLECULE
hivpr-ligand
85   88    1
SMALL
USER_CHARGES


@<TRIPOS>ATOM
      1 C1         24.8186   -1.6453   18.6682 C.3       1 <0>        -0.0650 
      2 C2         21.1351    0.4771   21.4878 C.3       1 <0>        -0.0650 
      3 C3         19.6753   -5.2373    9.5717 C.3       1 <0>        -0.1800 
      4 C4         17.9904   -6.4021   11.0500 C.3       1 <0>        -0.1800 
      5 C5         15.8315   -4.1992   19.7328 C.ar      1 <0>        -0.1150 
      6 C6         18.3717    2.3191   11.3273 C.ar      1 <0>        -0.1150 
      7 C7         16.5976   -4.9312   18.8053 C.ar      1 <0>        -0.1150 
      8 C8         16.0768   -2.8242   19.9142 C.ar      1 <0>        -0.1150 
      9 C9         17.8443    1.2003   11.9933 C.ar      1 <0>        -0.1150 
     10 C10        19.2132    2.1515   10.2111 C.ar      1 <0>        -0.1150 
     11 C11        24.2491    1.9493   19.8237 C.ar      1 <0>        -0.1150 
     12 C12        17.6017   -4.2873   18.0567 C.ar      1 <0>        -0.1150 
     13 C13        17.0874   -2.1828   19.1694 C.ar      1 <0>        -0.1150 
     14 C14        18.1666   -0.0941   11.5519 C.ar      1 <0>        -0.1150 
     15 C15        19.5940    0.8617    9.8058 C.ar      1 <0>        -0.1150 
     16 C16        24.8156    0.8167   19.2140 C.ar      1 <0>        -0.1150 
     17 C17        23.0447    1.8302   20.5409 C.ar      1 <0>        -0.1150 
     18 C18        22.6491   -3.1239   15.0518 C.3       1 <0>         0.1700 
     19 C19        22.1498   -3.6149   12.8027 C.3       1 <0>         0.1700 
     20 C20        18.9057   -2.1797   17.3982 C.3       1 <0>         0.0650 
     21 C21        20.3138   -3.6871   16.0308 C.3       1 <0>        -0.0500 
     22 C22        19.9085   -2.4157   12.7792 C.3       1 <0>         0.0588 
     23 C23        18.4221   -3.9309   11.4049 C.3       1 <0>         0.0588 
     24 C24        21.0700   -1.8822   19.3825 C.3       1 <0>         0.1400 
     25 C25        24.1716   -0.4339   19.3077 C.ar      1 <0>        -0.1150 
     26 C26        22.3932    0.5834   20.6423 C.ar      1 <0>        -0.1150 
     27 C27        17.8570   -2.9069   18.2336 C.ar      1 <0>        -0.1150 
     28 C28        19.0826   -0.2556   10.4907 C.ar      1 <0>         0.1567 
     29 C29        22.9412   -0.5528   19.9961 C.ar      1 <0>         0.0850 
     30 C30        21.1304   -2.9623   14.9346 C.3       1 <0>        -0.0600 
     31 C31        20.7971   -3.4412   13.5022 C.3       1 <0>        -0.0233 
     32 C32        19.0402   -5.2813   10.9720 C.3       1 <0>        -0.0233 
     33 C33        21.1773   -2.8608   18.1972 C.2       1 <0>         0.5000 
     34 N1         23.1435   -2.9836   13.6784 N.4       1 <0>        -0.2000 
     35 N2         20.1914   -2.8902   17.2637 N.am      1 <0>        -0.1400 
     36 N3         19.4308   -2.8545   11.4508 N.pl3     1 <0>        -0.5376 
     37 O1         22.1749   -3.5810   18.1079 O.2       1 <0>        -0.5000 
     38 O2         18.9334   -2.3746    8.9264 O.2       1 <0>        -0.4680 
     39 O3         21.1908   -1.7293    9.9152 O.2       1 <0>        -0.4680 
     40 O4         22.3256   -1.7831   20.0566 O.3       1 <0>        -0.2850 
     41 S1         19.7324   -1.8603   10.0504 S.o2      1 <0>         0.8327 
     42 H1         25.8962   -1.5076   18.5803 H         1 <0>         0.0600 
     43 H2         24.6549   -2.5318   19.2788 H         1 <0>         0.0600 
     44 H3         24.4060   -1.8222   17.6754 H         1 <0>         0.0600 
     45 H4         21.1289    1.2383   22.2687 H         1 <0>         0.0600 
     46 H5         20.2457    0.6135   20.8722 H         1 <0>         0.0600 
     47 H6         21.0780   -0.4940   21.9779 H         1 <0>         0.0600 
     48 H7         18.9365   -5.0063    8.8037 H         1 <0>         0.0600 
     49 H8         20.4766   -4.5004    9.5179 H         1 <0>         0.0600 
     50 H9         20.1393   -6.1842    9.3148 H         1 <0>         0.0600 
     51 H10        17.1538   -6.2080   10.3759 H         1 <0>         0.0600 
     52 H11        18.4197   -7.3667   10.7809 H         1 <0>         0.0600 
     53 H12        17.5839   -6.4920   12.0575 H         1 <0>         0.0600 
     54 H13        15.0564   -4.6914   20.3011 H         1 <0>         0.1150 
     55 H14        18.1229    3.3098   11.6786 H         1 <0>         0.1150 
     56 H15        16.4085   -5.9845   18.6642 H         1 <0>         0.1150 
     57 H16        15.4875   -2.2583   20.6213 H         1 <0>         0.1150 
     58 H17        17.2091    1.3402   12.8519 H         1 <0>         0.1150 
     59 H18        19.5906    3.0092    9.6790 H         1 <0>         0.1150 
     60 H19        24.7493    2.9043   19.7557 H         1 <0>         0.1150 
     61 H20        18.1699   -4.8671   17.3464 H         1 <0>         0.1150 
     62 H21        17.2559   -1.1267   19.3155 H         1 <0>         0.1150 
     63 H22        17.7470   -0.9442   12.0653 H         1 <0>         0.1150 
     64 H23        20.2892    0.7300    8.9907 H         1 <0>         0.1150 
     65 H24        25.7518    0.9112   18.6826 H         1 <0>         0.1150 
     66 H25        22.6322    2.6975   21.0326 H         1 <0>         0.1150 
     67 H26        22.9119   -4.1179   15.4195 H         1 <0>         0.0600 
     68 H27        23.1030   -2.3814   15.7089 H         1 <0>         0.0600 
     69 H28        22.3878   -4.6774   12.7179 H         1 <0>         0.0600 
     70 H29        22.1688   -3.2003   11.7972 H         1 <0>         0.0600 
     71 H30        19.0466   -1.1695   17.7745 H         1 <0>         0.0600 
     72 H31        18.4688   -2.0163   16.4139 H         1 <0>         0.0600 
     73 H32        19.3177   -3.9017   15.6403 H         1 <0>         0.0600 
     74 H33        20.7405   -4.6691   16.2447 H         1 <0>         0.0600 
     75 H34        20.4620   -1.4798   12.6692 H         1 <0>         0.0733 
     76 H35        19.0473   -2.1847   13.4062 H         1 <0>         0.0733 
     77 H36        17.9597   -4.0344   12.3871 H         1 <0>         0.0733 
     78 H37        17.6152   -3.6434   10.7286 H         1 <0>         0.0733 
     79 H38        20.7447   -0.9048   19.0257 H         1 <0>         0.0300 
     80 H39        20.3223   -2.2464   20.0868 H         1 <0>         0.0300 
     81 H40        20.9190   -1.8924   14.9896 H         1 <0>         0.0600 
     82 H41        20.2921   -4.4049   13.5486 H         1 <0>         0.0600 
     83 H42        19.8341   -5.5386   11.6712 H         1 <0>         0.0600 
     84 H43        24.0589   -3.3919   13.5655 H         1 <0>         0.3100 
     85 H44        23.2094   -1.9668   13.4807 H         1 <0>         0.3100 
@<TRIPOS>BOND
     1    1   25 1    
     2    1   42 1    
     3    1   43 1    
     4    1   44 1    
     5    2   26 1    
     6    2   45 1    
     7    2   46 1    
     8    2   47 1    
     9    3   32 1    
    10    3   48 1    
    11    3   49 1    
    12    3   50 1    
    13    4   32 1    
    14    4   51 1    
    15    4   52 1    
    16    4   53 1    
    17    5    7 ar   
    18    5    8 ar   
    19    5   54 1    
    20    6    9 ar   
    21    6   10 ar   
    22    6   55 1    
    23    7   12 ar   
    24    7   56 1    
    25    8   13 ar   
    26    8   57 1    
    27    9   14 ar   
    28    9   58 1    
    29   10   15 ar   
    30   10   59 1    
    31   11   16 ar   
    32   11   17 ar   
    33   11   60 1    
    34   12   27 ar   
    35   12   61 1    
    36   13   27 ar   
    37   13   62 1    
    38   14   28 ar   
    39   14   63 1    
    40   15   28 ar   
    41   15   64 1    
    42   16   25 ar   
    43   16   65 1    
    44   17   26 ar   
    45   17   66 1    
    46   18   30 1    
    47   18   34 1    
    48   18   67 1    
    49   18   68 1    
    50   19   31 1    
    51   19   34 1    
    52   19   69 1    
    53   19   70 1    
    54   20   27 1    
    55   20   35 1    
    56   20   71 1    
    57   20   72 1    
    58   21   30 1    
    59   21   35 1    
    60   21   73 1    
    61   21   74 1    
    62   22   31 1    
    63   22   36 1    
    64   22   75 1    
    65   22   76 1    
    66   23   32 1    
    67   23   36 1    
    68   23   77 1    
    69   23   78 1    
    70   24   33 1    
    71   24   40 1    
    72   24   79 1    
    73   24   80 1    
    74   25   29 ar   
    75   26   29 ar   
    76   28   41 1    
    77   29   40 1    
    78   30   31 1    
    79   30   81 1    
    80   31   82 1    
    81   32   83 1    
    82   33   35 am   BACKBONE|DICT|INTERRES
    83   33   37 2    
    84   34   84 1    
    85   34   85 1    
    86   36   41 1    
    87   38   41 2    
    88   39   41 2    
@<TRIPOS>SUBSTRUCTURE
     1 <0>         1 GROUP             0       ****    0 ROOT    
@<TRIPOS>MOLECULE
hivpr-ligand
85   88    1
SMALL
USER_CHARGES


@<TRIPOS>ATOM
      1 C1         24.8299   -1.7225   18.6576 C.3       1 <0>        -0.0650 
      2 C2         21.0508    0.4889   21.2703 C.3       1 <0>        -0.0650 
      3 C3         16.4527   -4.9071   12.2190 C.3       1 <0>        -0.1800 
      4 C4         16.5740   -2.4197   11.9194 C.3       1 <0>        -0.1800 
      5 C5         15.7808   -4.7171   19.3668 C.ar      1 <0>        -0.1150 
      6 C6         17.2994    1.8056   11.1383 C.ar      1 <0>        -0.1150 
      7 C7         16.6998   -5.4063   18.5518 C.ar      1 <0>        -0.1150 
      8 C8         15.8818   -3.3204   19.5109 C.ar      1 <0>        -0.1150 
      9 C9         18.3058    1.3942   12.0247 C.ar      1 <0>        -0.1150 
     10 C10        17.1648    1.1704    9.8934 C.ar      1 <0>        -0.1150 
     11 C11        24.2613    1.8969   19.7321 C.ar      1 <0>        -0.1150 
     12 C12        17.7164   -4.6984   17.8845 C.ar      1 <0>        -0.1150 
     13 C13        16.9009   -2.6140   18.8422 C.ar      1 <0>        -0.1150 
     14 C14        19.1605    0.3382   11.6672 C.ar      1 <0>        -0.1150 
     15 C15        17.9790    0.0778    9.5455 C.ar      1 <0>        -0.1150 
     16 C16        24.8402    0.7496   19.1648 C.ar      1 <0>        -0.1150 
     17 C17        23.0244    1.8033   20.3991 C.ar      1 <0>        -0.1150 
     18 C18        22.7390   -3.4349   14.9877 C.3       1 <0>         0.1700 
     19 C19        22.1924   -4.0728   12.7958 C.3       1 <0>         0.1700 
     20 C20        18.8963   -2.4911   17.2806 C.3       1 <0>         0.0650 
     21 C21        20.4004   -3.9757   15.9891 C.3       1 <0>        -0.0500 
     22 C22        20.1813   -2.5371   12.7044 C.3       1 <0>         0.0588 
     23 C23        18.5760   -3.8958   11.2792 C.3       1 <0>         0.0588 
     24 C24        21.0682   -1.9101   19.1963 C.3       1 <0>         0.1400 
     25 C25        24.1772   -0.4920   19.2495 C.ar      1 <0>        -0.1150 
     26 C26        22.3522    0.5673   20.4923 C.ar      1 <0>        -0.1150 
     27 C27        17.8319   -3.2947   18.0275 C.ar      1 <0>        -0.1150 
     28 C28        18.9710   -0.3482   10.4473 C.ar      1 <0>         0.1567 
     29 C29        22.9152   -0.5844   19.8862 C.ar      1 <0>         0.0850 
     30 C30        21.2177   -3.2592   14.8885 C.3       1 <0>        -0.0600 
     31 C31        20.8525   -3.7039   13.4487 C.3       1 <0>        -0.0233 
     32 C32        17.3823   -3.6846   12.2448 C.3       1 <0>        -0.0233 
     33 C33        21.2090   -2.9886   18.1076 C.2       1 <0>         0.5000 
     34 N1         23.2095   -3.3834   13.5974 N.4       1 <0>        -0.2000 
     35 N2         20.2182   -3.1390   17.1884 N.am      1 <0>        -0.1400 
     36 N3         19.6592   -2.8842   11.3682 N.pl3     1 <0>        -0.5376 
     37 O1         22.2322   -3.6769   18.0751 O.2       1 <0>        -0.5000 
     38 O2         19.4541   -2.4063    8.8145 O.2       1 <0>        -0.4680 
     39 O3         21.3789   -1.3827   10.1246 O.2       1 <0>        -0.4680 
     40 O4         22.2799   -1.8018   19.9432 O.3       1 <0>        -0.2850 
     41 S1         19.9674   -1.7850   10.0468 S.o2      1 <0>         0.8327 
     42 H1         25.9017   -1.5719   18.5279 H         1 <0>         0.0600 
     43 H2         24.6953   -2.5816   19.3140 H         1 <0>         0.0600 
     44 H3         24.3945   -1.9547   17.6867 H         1 <0>         0.0600 
     45 H4         20.9753    1.3091   21.9837 H         1 <0>         0.0600 
     46 H5         20.1962    0.5471   20.5967 H         1 <0>         0.0600 
     47 H6         20.9907   -0.4448   21.8320 H         1 <0>         0.0600 
     48 H7         16.0115   -5.0486   11.2320 H         1 <0>         0.0600 
     49 H8         16.9868   -5.8214   12.4795 H         1 <0>         0.0600 
     50 H9         15.6304   -4.7960   12.9283 H         1 <0>         0.0600 
     51 H10        16.2664   -2.4007   10.8738 H         1 <0>         0.0600 
     52 H11        15.6683   -2.3679   12.5227 H         1 <0>         0.0600 
     53 H12        17.1450   -1.5184   12.1264 H         1 <0>         0.0600 
     54 H13        14.9975   -5.2584   19.8781 H         1 <0>         0.1150 
     55 H14        16.6413    2.6166   11.4056 H         1 <0>         0.1150 
     56 H15        16.6213   -6.4785   18.4386 H         1 <0>         0.1150 
     57 H16        15.1719   -2.7878   20.1298 H         1 <0>         0.1150 
     58 H17        18.4095    1.8884   12.9750 H         1 <0>         0.1150 
     59 H18        16.4076    1.5164    9.2189 H         1 <0>         0.1150 
     60 H19        24.7760    2.8452   19.6764 H         1 <0>         0.1150 
     61 H20        18.4046   -5.2538   17.2684 H         1 <0>         0.1150 
     62 H21        16.9577   -1.5415   18.9533 H         1 <0>         0.1150 
     63 H22        19.9456    0.0606   12.3476 H         1 <0>         0.1150 
     64 H23        17.8366   -0.4239    8.6017 H         1 <0>         0.1150 
     65 H24        25.7992    0.8254   18.6709 H         1 <0>         0.1150 
     66 H25        22.6020    2.6839   20.8589 H         1 <0>         0.1150 
     67 H26        22.9995   -4.4063   15.4117 H         1 <0>         0.0600 
     68 H27        23.2104   -2.6600   15.5936 H         1 <0>         0.0600 
     69 H28        22.3581   -5.1473   12.8705 H         1 <0>         0.0600 
     70 H29        22.2503   -3.8033   11.7423 H         1 <0>         0.0600 
     71 H30        18.9680   -1.4934   17.7083 H         1 <0>         0.0600 
     72 H31        18.5165   -2.3074   16.2737 H         1 <0>         0.0600 
     73 H32        19.4197   -4.2279   15.5831 H         1 <0>         0.0600 
     74 H33        20.8496   -4.9348   16.2499 H         1 <0>         0.0600 
     75 H34        20.9404   -1.7638   12.5968 H         1 <0>         0.0733 
     76 H35        19.3845   -2.0901   13.2998 H         1 <0>         0.0733 
     77 H36        18.2003   -3.9482   10.2581 H         1 <0>         0.0733 
     78 H37        19.0205   -4.8740   11.4671 H         1 <0>         0.0733 
     79 H38        20.8133   -0.9600   18.7258 H         1 <0>         0.0300 
     80 H39        20.2566   -2.1779   19.8736 H         1 <0>         0.0300 
     81 H40        21.0215   -2.1874   14.9721 H         1 <0>         0.0600 
     82 H41        20.1973   -4.5763   13.4629 H         1 <0>         0.0600 
     83 H42        17.7495   -3.6071   13.2690 H         1 <0>         0.0600 
     84 H43        24.1316   -3.7778   13.4900 H         1 <0>         0.3100 
     85 H44        23.2253   -2.3958   13.3300 H         1 <0>         0.3100 
@<TRIPOS>BOND
     1    1   25 1    
     2    1   42 1    
     3    1   43 1    
     4    1   44 1    
     5    2   26 1    
     6    2   45 1    
     7    2   46 1    
     8    2   47 1    
     9    3   32 1    
    10    3   48 1    
    11    3   49 1    
    12    3   50 1    
    13    4   32 1    
    14    4   51 1    
    15    4   52 1    
    16    4   53 1    
    17    5    7 ar   
    18    5    8 ar   
    19    5   54 1    
    20    6    9 ar   
    21    6   10 ar   
    22    6   55 1    
    23    7   12 ar   
    24    7   56 1    
    25    8   13 ar   
    26    8   57 1    
    27    9   14 ar   
    28    9   58 1    
    29   10   15 ar   
    30   10   59 1    
    31   11   16 ar   
    32   11   17 ar   
    33   11   60 1    
    34   12   27 ar   
    35   12   61 1    
    36   13   27 ar   
    37   13   62 1    
    38   14   28 ar   
    39   14   63 1    
    40   15   28 ar   
    41   15   64 1    
    42   16   25 ar   
    43   16   65 1    
    44   17   26 ar   
    45   17   66 1    
    46   18   30 1    
    47   18   34 1    
    48   18   67 1    
    49   18   68 1    
    50   19   31 1    
    51   19   34 1    
    52   19   69 1    
    53   19   70 1    
    54   20   27 1    
    55   20   35 1    
    56   20   71 1    
    57   20   72 1    
    58   21   30 1    
    59   21   35 1    
    60   21   73 1    
    61   21   74 1    
    62   22   31 1    
    63   22   36 1    
    64   22   75 1    
    65   22   76 1    
    66   23   32 1    
    67   23   36 1    
    68   23   77 1    
    69   23   78 1    
    70   24   33 1    
    71   24   40 1    
    72   24   79 1    
    73   24   80 1    
    74   25   29 ar   
    75   26   29 ar   
    76   28   41 1    
    77   29   40 1    
    78   30   31 1    
    79   30   81 1    
    80   31   82 1    
    81   32   83 1    
    82   33   35 am   BACKBONE|DICT|INTERRES
    83   33   37 2    
    84   34   84 1    
    85   34   85 1    
    86   36   41 1    
    87   38   41 2    
    88   39   41 2    
@<TRIPOS>SUBSTRUCTURE
     1 <0>         1 GROUP             0       ****    0 ROOT    
@<TRIPOS>MOLECULE
hivpr-ligand
85   88    1
SMALL
USER_CHARGES


@<TRIPOS>ATOM
      1 C1         24.8462   -1.3872   18.7379 C.3       1 <0>        -0.0650 
      2 C2         20.8135    0.3168   21.3664 C.3       1 <0>        -0.0650 
      3 C3         16.7683   -6.0233   11.4712 C.3       1 <0>        -0.1800 
      4 C4         19.2719   -6.2469   11.4369 C.3       1 <0>        -0.1800 
      5 C5         15.8097   -4.6460   19.4576 C.ar      1 <0>        -0.1150 
      6 C6         18.1206    1.7887   10.6390 C.ar      1 <0>        -0.1150 
      7 C7         16.6991   -5.3228   18.6017 C.ar      1 <0>        -0.1150 
      8 C8         15.9193   -3.2507   19.6166 C.ar      1 <0>        -0.1150 
      9 C9         17.2090    0.7158   10.6005 C.ar      1 <0>        -0.1150 
     10 C10        19.4892    1.5656   10.3906 C.ar      1 <0>        -0.1150 
     11 C11        23.8813    2.1029   19.9494 C.ar      1 <0>        -0.1150 
     12 C12        17.6973   -4.6094   17.9099 C.ar      1 <0>        -0.1150 
     13 C13        16.9163   -2.5379   18.9233 C.ar      1 <0>        -0.1150 
     14 C14        17.6701   -0.5901   10.3333 C.ar      1 <0>        -0.1150 
     15 C15        19.9532    0.2627   10.1247 C.ar      1 <0>        -0.1150 
     16 C16        24.5847    1.0464   19.3472 C.ar      1 <0>        -0.1150 
     17 C17        22.6517    1.8555   20.5867 C.ar      1 <0>        -0.1150 
     18 C18        22.6945   -3.3757   14.9723 C.3       1 <0>         0.1700 
     19 C19        22.1890   -4.0201   12.7628 C.3       1 <0>         0.1700 
     20 C20        18.8539   -2.3952   17.2879 C.3       1 <0>         0.0650 
     21 C21        20.3294   -3.8394   15.9232 C.3       1 <0>        -0.0500 
     22 C22        20.0688   -2.6134   12.5786 C.3       1 <0>         0.0588 
     23 C23        18.1529   -3.9409   11.7250 C.3       1 <0>         0.0588 
     24 C24        21.0298   -1.9312   19.2244 C.3       1 <0>         0.1400 
     25 C25        24.0498   -0.2580   19.3618 C.ar      1 <0>        -0.1150 
     26 C26        22.1072    0.5539   20.6057 C.ar      1 <0>        -0.1150 
     27 C27        17.8160   -3.2074   18.0649 C.ar      1 <0>        -0.1150 
     28 C28        19.0422   -0.8144   10.1068 C.ar      1 <0>         0.1567 
     29 C29        22.7896   -0.5069   19.9546 C.ar      1 <0>         0.0850 
     30 C30        21.1822   -3.1505   14.8298 C.3       1 <0>        -0.0600 
     31 C31        20.8451   -3.6588   13.4077 C.3       1 <0>        -0.0233 
     32 C32        18.0833   -5.3409   11.0780 C.3       1 <0>        -0.0233 
     33 C33        21.1664   -2.9430   18.0734 C.2       1 <0>         0.5000 
     34 N1         23.2096   -3.3833   13.5992 N.4       1 <0>        -0.2000 
     35 N2         20.1771   -3.0332   17.1479 N.am      1 <0>        -0.1400 
     36 N3         19.4044   -3.2210   11.4111 N.pl3     1 <0>        -0.5376 
     37 O1         22.1896   -3.6276   18.0047 O.2       1 <0>        -0.5000 
     38 O2         18.7860   -3.1573    8.8719 O.2       1 <0>        -0.4680 
     39 O3         21.1011   -2.4149    9.6260 O.2       1 <0>        -0.4680 
     40 O4         22.2766   -1.7842   19.9073 O.3       1 <0>        -0.2850 
     41 S1         19.6501   -2.4841    9.8527 S.o2      1 <0>         0.8327 
     42 H1         25.9111   -1.1463   18.7122 H         1 <0>         0.0600 
     43 H2         24.7340   -2.2996   19.3220 H         1 <0>         0.0600 
     44 H3         24.5128   -1.5799   17.7194 H         1 <0>         0.0600 
     45 H4         20.6729    1.0738   22.1389 H         1 <0>         0.0600 
     46 H5         19.9555    0.3556   20.6955 H         1 <0>         0.0600 
     47 H6         20.8274   -0.6547   21.8596 H         1 <0>         0.0600 
     48 H7         16.7435   -6.2614   12.5340 H         1 <0>         0.0600 
     49 H8         15.9223   -5.3703   11.2695 H         1 <0>         0.0600 
     50 H9         16.6143   -6.9474   10.9164 H         1 <0>         0.0600 
     51 H10        19.3222   -6.4274   12.5103 H         1 <0>         0.0600 
     52 H11        19.1792   -7.2167   10.9477 H         1 <0>         0.0600 
     53 H12        20.2175   -5.8110   11.1219 H         1 <0>         0.0600 
     54 H13        15.0461   -5.1953   19.9901 H         1 <0>         0.1150 
     55 H14        17.7725    2.7847   10.8596 H         1 <0>         0.1150 
     56 H15        16.6186   -6.3925   18.4742 H         1 <0>         0.1150 
     57 H16        15.2339   -2.7252   20.2650 H         1 <0>         0.1150 
     58 H17        16.1605    0.8936   10.7875 H         1 <0>         0.1150 
     59 H18        20.1854    2.3900   10.4194 H         1 <0>         0.1150 
     60 H19        24.2987    3.0979   19.9485 H         1 <0>         0.1150 
     61 H20        18.3626   -5.1549   17.2608 H         1 <0>         0.1150 
     62 H21        16.9745   -1.4671   19.0474 H         1 <0>         0.1150 
     63 H22        16.9739   -1.4142   10.3166 H         1 <0>         0.1150 
     64 H23        21.0079    0.0967    9.9636 H         1 <0>         0.1150 
     65 H24        25.5404    1.2387   18.8805 H         1 <0>         0.1150 
     66 H25        22.1366    2.6672   21.0792 H         1 <0>         0.1150 
     67 H26        22.9081   -4.3452   15.4258 H         1 <0>         0.0600 
     68 H27        23.1824   -2.6055   15.5711 H         1 <0>         0.0600 
     69 H28        22.3353   -5.1009   12.7915 H         1 <0>         0.0600 
     70 H29        22.2684   -3.7042   11.7246 H         1 <0>         0.0600 
     71 H30        18.9326   -1.3973   17.7180 H         1 <0>         0.0600 
     72 H31        18.4355   -2.2030   16.2990 H         1 <0>         0.0600 
     73 H32        19.3413   -4.0467   15.5101 H         1 <0>         0.0600 
     74 H33        20.7311   -4.8259   16.1654 H         1 <0>         0.0600 
     75 H34        20.7478   -1.8209   12.2591 H         1 <0>         0.0733 
     76 H35        19.3103   -2.1228   13.1885 H         1 <0>         0.0733 
     77 H36        18.0382   -4.0467   12.8032 H         1 <0>         0.0733 
     78 H37        17.3052   -3.3415   11.3974 H         1 <0>         0.0733 
     79 H38        20.7044   -0.9758   18.8196 H         1 <0>         0.0300 
     80 H39        20.2696   -2.2795   19.9213 H         1 <0>         0.0300 
     81 H40        21.0041   -2.0730   14.8612 H         1 <0>         0.0600 
     82 H41        20.2579   -4.5702   13.4896 H         1 <0>         0.0600 
     83 H42        18.0695   -5.2331    9.9956 H         1 <0>         0.0600 
     84 H43        24.1092   -3.8367   13.5317 H         1 <0>         0.3100 
     85 H44        23.3002   -2.4008   13.3271 H         1 <0>         0.3100 
@<TRIPOS>BOND
     1    1   25 1    
     2    1   42 1    
     3    1   43 1    
     4    1   44 1    
     5    2   26 1    
     6    2   45 1    
     7    2   46 1    
     8    2   47 1    
     9    3   32 1    
    10    3   48 1    
    11    3   49 1    
    12    3   50 1    
    13    4   32 1    
    14    4   51 1    
    15    4   52 1    
    16    4   53 1    
    17    5    7 ar   
    18    5    8 ar   
    19    5   54 1    
    20    6    9 ar   
    21    6   10 ar   
    22    6   55 1    
    23    7   12 ar   
    24    7   56 1    
    25    8   13 ar   
    26    8   57 1    
    27    9   14 ar   
    28    9   58 1    
    29   10   15 ar   
    30   10   59 1    
    31   11   16 ar   
    32   11   17 ar   
    33   11   60 1    
    34   12   27 ar   
    35   12   61 1    
    36   13   27 ar   
    37   13   62 1    
    38   14   28 ar   
    39   14   63 1    
    40   15   28 ar   
    41   15   64 1    
    42   16   25 ar   
    43   16   65 1    
    44   17   26 ar   
    45   17   66 1    
    46   18   30 1    
    47   18   34 1    
    48   18   67 1    
    49   18   68 1    
    50   19   31 1    
    51   19   34 1    
    52   19   69 1    
    53   19   70 1    
    54   20   27 1    
    55   20   35 1    
    56   20   71 1    
    57   20   72 1    
    58   21   30 1    
    59   21   35 1    
    60   21   73 1    
    61   21   74 1    
    62   22   31 1    
    63   22   36 1    
    64   22   75 1    
    65   22   76 1    
    66   23   32 1    
    67   23   36 1    
    68   23   77 1    
    69   23   78 1    
    70   24   33 1    
    71   24   40 1    
    72   24   79 1    
    73   24   80 1    
    74   25   29 ar   
    75   26   29 ar   
    76   28   41 1    
    77   29   40 1    
    78   30   31 1    
    79   30   81 1    
    80   31   82 1    
    81   32   83 1    
    82   33   35 am   BACKBONE|DICT|INTERRES
    83   33   37 2    
    84   34   84 1    
    85   34   85 1    
    86   36   41 1    
    87   38   41 2    
    88   39   41 2    
@<TRIPOS>SUBSTRUCTURE
     1 <0>         1 GROUP             0       ****    0 ROOT    
@<TRIPOS>MOLECULE
hivpr-ligand
85   88    1
SMALL
USER_CHARGES


@<TRIPOS>ATOM
      1 C1         24.6620   -2.0679   18.4979 C.3       1 <0>        -0.0650 
      2 C2         21.0673    0.2005   21.3417 C.3       1 <0>        -0.0650 
      3 C3         17.8192   -6.0005   10.0552 C.3       1 <0>        -0.1800 
      4 C4         20.2864   -5.4649    9.9611 C.3       1 <0>        -0.1800 
      5 C5         15.7521   -4.7357   19.4223 C.ar      1 <0>        -0.1150 
      6 C6         17.4015    1.8181   11.2469 C.ar      1 <0>        -0.1150 
      7 C7         16.6286   -5.3765   18.5255 C.ar      1 <0>        -0.1150 
      8 C8         15.8383   -3.3425   19.6094 C.ar      1 <0>        -0.1150 
      9 C9         16.8097    0.5971   10.8849 C.ar      1 <0>        -0.1150 
     10 C10        18.7881    2.0064   11.0914 C.ar      1 <0>        -0.1150 
     11 C11        24.3192    1.5000   19.8087 C.ar      1 <0>        -0.1150 
     12 C12        17.5863   -4.6254   17.8169 C.ar      1 <0>        -0.1150 
     13 C13        16.7979   -2.5918   18.9027 C.ar      1 <0>        -0.1150 
     14 C14        17.6095   -0.4548   10.3998 C.ar      1 <0>        -0.1150 
     15 C15        19.5941    0.9545   10.6130 C.ar      1 <0>        -0.1150 
     16 C16        24.8155    0.3526   19.1650 C.ar      1 <0>        -0.1150 
     17 C17        23.0934    1.4420   20.4954 C.ar      1 <0>        -0.1150 
     18 C18        22.5756   -3.4620   14.9746 C.3       1 <0>         0.1700 
     19 C19        22.2194   -3.8574   12.6858 C.3       1 <0>         0.1700 
     20 C20        18.6817   -2.3794   17.2153 C.3       1 <0>         0.0650 
     21 C21        20.1218   -3.7670   15.7419 C.3       1 <0>        -0.0500 
     22 C22        20.1072   -2.4147   12.4779 C.3       1 <0>         0.0588 
     23 C23        18.6375   -3.8111   11.0226 C.3       1 <0>         0.0588 
     24 C24        20.8846   -2.0722   19.1433 C.3       1 <0>         0.1400 
     25 C25        24.0821   -0.8511   19.1922 C.ar      1 <0>        -0.1150 
     26 C26        22.3511    0.2431   20.5323 C.ar      1 <0>        -0.1150 
     27 C27        17.6800   -3.2245   17.9997 C.ar      1 <0>        -0.1150 
     28 C28        19.0029   -0.2840   10.2950 C.ar      1 <0>         0.1567 
     29 C29        22.8295   -0.9067   19.8524 C.ar      1 <0>         0.0850 
     30 C30        21.1003   -3.1111   14.7360 C.3       1 <0>        -0.0600 
     31 C31        20.8381   -3.5279   13.2695 C.3       1 <0>        -0.0233 
     32 C32        18.8657   -4.8833    9.9354 C.3       1 <0>        -0.0233 
     33 C33        20.9711   -3.0374   17.9491 C.2       1 <0>         0.5000 
     34 N1         23.2056   -3.3834   13.6575 N.4       1 <0>        -0.2000 
     35 N2         19.9925   -3.0230   17.0089 N.am      1 <0>        -0.1400 
     36 N3         19.7387   -2.8214   11.1057 N.pl3     1 <0>        -0.5376 
     37 O1         21.9498   -3.7825   17.8616 O.2       1 <0>        -0.5000 
     38 O2         19.5251   -2.2211    8.5566 O.2       1 <0>        -0.4680 
     39 O3         21.4422   -1.2582    9.9201 O.2       1 <0>        -0.4680 
     40 O4         22.1163   -2.0846   19.8632 O.3       1 <0>        -0.2850 
     41 S1         20.0349   -1.6705    9.8222 S.o2      1 <0>         0.8327 
     42 H1         25.7482   -2.0778   18.5815 H         1 <0>         0.0600 
     43 H2         24.2910   -2.9963   18.9247 H         1 <0>         0.0600 
     44 H3         24.4054   -2.0497   17.4401 H         1 <0>         0.0600 
     45 H4         21.0927    0.9345   22.1471 H         1 <0>         0.0600 
     46 H5         20.2061    0.4164   20.7091 H         1 <0>         0.0600 
     47 H6         20.9267   -0.7794   21.8005 H         1 <0>         0.0600 
     48 H7         17.9077   -6.5308   11.0041 H         1 <0>         0.0600 
     49 H8         16.8096   -5.5927   10.0023 H         1 <0>         0.0600 
     50 H9         17.9219   -6.7325    9.2550 H         1 <0>         0.0600 
     51 H10        20.4991   -5.9607   10.9083 H         1 <0>         0.0600 
     52 H11        20.4097   -6.1844    9.1570 H         1 <0>         0.0600 
     53 H12        21.0432   -4.6957    9.8034 H         1 <0>         0.0600 
     54 H13        15.0165   -5.3122   19.9649 H         1 <0>         0.1150 
     55 H14        16.7857    2.6189   11.6259 H         1 <0>         0.1150 
     56 H15        16.5645   -6.4452   18.3797 H         1 <0>         0.1150 
     57 H16        15.1632   -2.8472   20.2918 H         1 <0>         0.1150 
     58 H17        15.7411    0.4733   10.9762 H         1 <0>         0.1150 
     59 H18        19.2248    2.9589   11.3505 H         1 <0>         0.1150 
     60 H19        24.8893    2.4184   19.7905 H         1 <0>         0.1150 
     61 H20        18.2411   -5.1423   17.1335 H         1 <0>         0.1150 
     62 H21        16.8453   -1.5230   19.0502 H         1 <0>         0.1150 
     63 H22        17.1487   -1.3869   10.1203 H         1 <0>         0.1150 
     64 H23        20.6625    1.0916   10.5252 H         1 <0>         0.1150 
     65 H24        25.7654    0.3993   18.6527 H         1 <0>         0.1150 
     66 H25        22.7306    2.3190   21.0100 H         1 <0>         0.1150 
     67 H26        22.6865   -4.4785   15.3535 H         1 <0>         0.0600 
     68 H27        23.0603   -2.7801   15.6726 H         1 <0>         0.0600 
     69 H28        22.3322   -4.9351   12.5613 H         1 <0>         0.0600 
     70 H29        22.3901   -3.3889   11.7250 H         1 <0>         0.0600 
     71 H30        18.7905   -1.4056   17.6911 H         1 <0>         0.0600 
     72 H31        18.2263   -2.1427   16.2530 H         1 <0>         0.0600 
     73 H32        19.1433   -3.8514   15.2690 H         1 <0>         0.0600 
     74 H33        20.4157   -4.7982   15.9450 H         1 <0>         0.0600 
     75 H34        20.7434   -1.5281   12.4377 H         1 <0>         0.0733 
     76 H35        19.2022   -2.1061   13.0046 H         1 <0>         0.0733 
     77 H36        18.5117   -4.3117   11.9819 H         1 <0>         0.0733 
     78 H37        17.6924   -3.3018   10.8508 H         1 <0>         0.0733 
     79 H38        20.6456   -1.0697   18.7857 H         1 <0>         0.0300 
     80 H39        20.0830   -2.3893   19.8098 H         1 <0>         0.0300 
     81 H40        21.0055   -2.0258   14.8039 H         1 <0>         0.0600 
     82 H41        20.2523   -4.4462   13.2635 H         1 <0>         0.0600 
     83 H42        18.7092   -4.4374    8.9559 H         1 <0>         0.0600 
     84 H43        24.0806   -3.8860   13.6134 H         1 <0>         0.3100 
     85 H44        23.3655   -2.3887   13.4792 H         1 <0>         0.3100 
@<TRIPOS>BOND
     1    1   25 1    
     2    1   42 1    
     3    1   43 1    
     4    1   44 1    
     5    2   26 1    
     6    2   45 1    
     7    2   46 1    
     8    2   47 1    
     9    3   32 1    
    10    3   48 1    
    11    3   49 1    
    12    3   50 1    
    13    4   32 1    
    14    4   51 1    
    15    4   52 1    
    16    4   53 1    
    17    5    7 ar   
    18    5    8 ar   
    19    5   54 1    
    20    6    9 ar   
    21    6   10 ar   
    22    6   55 1    
    23    7   12 ar   
    24    7   56 1    
    25    8   13 ar   
    26    8   57 1    
    27    9   14 ar   
    28    9   58 1    
    29   10   15 ar   
    30   10   59 1    
    31   11   16 ar   
    32   11   17 ar   
    33   11   60 1    
    34   12   27 ar   
    35   12   61 1    
    36   13   27 ar   
    37   13   62 1    
    38   14   28 ar   
    39   14   63 1    
    40   15   28 ar   
    41   15   64 1    
    42   16   25 ar   
    43   16   65 1    
    44   17   26 ar   
    45   17   66 1    
    46   18   30 1    
    47   18   34 1    
    48   18   67 1    
    49   18   68 1    
    50   19   31 1    
    51   19   34 1    
    52   19   69 1    
    53   19   70 1    
    54   20   27 1    
    55   20   35 1    
    56   20   71 1    
    57   20   72 1    
    58   21   30 1    
    59   21   35 1    
    60   21   73 1    
    61   21   74 1    
    62   22   31 1    
    63   22   36 1    
    64   22   75 1    
    65   22   76 1    
    66   23   32 1    
    67   23   36 1    
    68   23   77 1    
    69   23   78 1    
    70   24   33 1    
    71   24   40 1    
    72   24   79 1    
    73   24   80 1    
    74   25   29 ar   
    75   26   29 ar   
    76   28   41 1    
    77   29   40 1    
    78   30   31 1    
    79   30   81 1    
    80   31   82 1    
    81   32   83 1    
    82   33   35 am   BACKBONE|DICT|INTERRES
    83   33   37 2    
    84   34   84 1    
    85   34   85 1    
    86   36   41 1    
    87   38   41 2    
    88   39   41 2    
@<TRIPOS>SUBSTRUCTURE
     1 <0>         1 GROUP             0       ****    0 ROOT    
@<TRIPOS>MOLECULE
hivpr-ligand
85   88    1
SMALL
USER_CHARGES


@<TRIPOS>ATOM
      1 C1         20.4258   -0.0063   21.5229 C.3       1 <0>        -0.0650 
      2 C2         24.7479   -1.0745   19.0086 C.3       1 <0>        -0.0650 
      3 C3         15.9027   -3.8868   13.2434 C.3       1 <0>        -0.1800 
      4 C4         16.1157   -2.2546   11.3327 C.3       1 <0>        -0.1800 
      5 C5         15.8074   -4.3702   19.5850 C.ar      1 <0>        -0.1150 
      6 C6         19.1535    1.6989    9.1488 C.ar      1 <0>        -0.1150 
      7 C7         16.5751   -5.0922   18.6521 C.ar      1 <0>        -0.1150 
      8 C8         16.0153   -2.9865   19.7415 C.ar      1 <0>        -0.1150 
      9 C9         18.1065    0.8389    8.7653 C.ar      1 <0>        -0.1150 
     10 C10        20.3274    1.1620    9.7082 C.ar      1 <0>        -0.1150 
     11 C11        23.5137    2.1008   20.7337 C.ar      1 <0>        -0.1150 
     12 C12        17.5492   -4.4341   17.8763 C.ar      1 <0>        -0.1150 
     13 C13        16.9888   -2.3281   18.9647 C.ar      1 <0>        -0.1150 
     14 C14        18.2272   -0.5537    8.9408 C.ar      1 <0>        -0.1150 
     15 C15        20.4558   -0.2281    9.8831 C.ar      1 <0>        -0.1150 
     16 C16        22.2436    1.7031   21.1899 C.ar      1 <0>        -0.1150 
     17 C17        24.3172    1.1945   20.0228 C.ar      1 <0>        -0.1150 
     18 C18        22.6446   -3.3986   14.9536 C.3       1 <0>         0.1700 
     19 C19        22.1929   -3.9868   12.7256 C.3       1 <0>         0.1700 
     20 C20        18.7848   -2.3007   17.1703 C.3       1 <0>         0.0650 
     21 C21        20.2434   -3.7965   15.8398 C.3       1 <0>        -0.0500 
     22 C22        20.0457   -2.5686   12.5130 C.3       1 <0>         0.0588 
     23 C23        18.0001   -3.8967   11.8319 C.3       1 <0>         0.0588 
     24 C24        20.9180   -1.8752   19.1328 C.3       1 <0>         0.1400 
     25 C25        21.7642    0.4008   20.9317 C.ar      1 <0>        -0.1150 
     26 C26        23.8476   -0.1079   19.7512 C.ar      1 <0>        -0.1150 
     27 C27        17.7634   -3.0439   18.0267 C.ar      1 <0>        -0.1150 
     28 C28        19.3973   -1.0850    9.5203 C.ar      1 <0>         0.1567 
     29 C29        22.5581   -0.5083   20.1814 C.ar      1 <0>         0.0850 
     30 C30        21.1429   -3.1362   14.7666 C.3       1 <0>        -0.0600 
     31 C31        20.8267   -3.6321   13.3329 C.3       1 <0>        -0.0233 
     32 C32        16.8708   -3.0224   12.4250 C.3       1 <0>        -0.0233 
     33 C33        21.0639   -2.9042   17.9985 C.2       1 <0>         0.5000 
     34 N1         23.2058   -3.3835   13.5994 N.4       1 <0>        -0.2000 
     35 N2         20.0910   -2.9767   17.0530 N.am      1 <0>        -0.1400 
     36 N3         19.2082   -3.1367   11.4290 N.pl3     1 <0>        -0.5376 
     37 O1         22.0725   -3.6119   17.9561 O.2       1 <0>        -0.5000 
     38 O2         18.5781   -3.5366    8.9144 O.2       1 <0>        -0.4680 
     39 O3         21.0095   -3.1794    9.5567 O.2       1 <0>        -0.4680 
     40 O4         22.1327   -1.7841   19.8781 O.3       1 <0>        -0.2850 
     41 S1         19.5879   -2.8575    9.7431 S.o2      1 <0>         0.8327 
     42 H1         20.1517    0.6433   22.3541 H         1 <0>         0.0600 
     43 H2         19.6379    0.0563   20.7731 H         1 <0>         0.0600 
     44 H3         20.4708   -1.0257   21.9078 H         1 <0>         0.0600 
     45 H4         25.5590   -0.5496   18.5044 H         1 <0>         0.0600 
     46 H5         25.1902   -1.7729   19.7190 H         1 <0>         0.0600 
     47 H6         24.1893   -1.6401   18.2613 H         1 <0>         0.0600 
     48 H7         15.4273   -4.6475   12.6242 H         1 <0>         0.0600 
     49 H8         16.4159   -4.3930   14.0617 H         1 <0>         0.0600 
     50 H9         15.1165   -3.2757   13.6847 H         1 <0>         0.0600 
     51 H10        15.8068   -2.9142   10.5208 H         1 <0>         0.0600 
     52 H11        15.2150   -1.7836   11.7239 H         1 <0>         0.0600 
     53 H12        16.7374   -1.4663   10.9194 H         1 <0>         0.0600 
     54 H13        15.0581   -4.8748   20.1757 H         1 <0>         0.1150 
     55 H14        19.0559    2.7670    9.0169 H         1 <0>         0.1150 
     56 H15        16.4141   -6.1541   18.5281 H         1 <0>         0.1150 
     57 H16        15.4213   -2.4267   20.4491 H         1 <0>         0.1150 
     58 H17        17.2100    1.2542    8.3419 H         1 <0>         0.1150 
     59 H18        21.1301    1.8156   10.0089 H         1 <0>         0.1150 
     60 H19        23.8811    3.0946   20.9490 H         1 <0>         0.1150 
     61 H20        18.1198   -5.0082   17.1637 H         1 <0>         0.1150 
     62 H21        17.1304   -1.2645   19.0881 H         1 <0>         0.1150 
     63 H22        17.4142   -1.2040    8.6598 H         1 <0>         0.1150 
     64 H23        21.3667   -0.6235   10.3063 H         1 <0>         0.1150 
     65 H24        21.6474    2.3964   21.7635 H         1 <0>         0.1150 
     66 H25        25.3016    1.5007   19.6952 H         1 <0>         0.1150 
     67 H26        22.8223   -4.3827   15.3902 H         1 <0>         0.0600 
     68 H27        23.1269   -2.6520   15.5856 H         1 <0>         0.0600 
     69 H28        22.3338   -5.0683   12.7239 H         1 <0>         0.0600 
     70 H29        22.3084   -3.6361   11.7090 H         1 <0>         0.0600 
     71 H30        18.8964   -1.2789   17.5321 H         1 <0>         0.0600 
     72 H31        18.3421   -2.1660   16.1817 H         1 <0>         0.0600 
     73 H32        19.2607   -3.9792   15.4049 H         1 <0>         0.0600 
     74 H33        20.6122   -4.7906   16.0979 H         1 <0>         0.0600 
     75 H34        20.7421   -1.8371   12.1053 H         1 <0>         0.0733 
     76 H35        19.4048   -1.9897   13.1746 H         1 <0>         0.0733 
     77 H36        17.6223   -4.4756   10.9888 H         1 <0>         0.0733 
     78 H37        18.2892   -4.6481   12.5629 H         1 <0>         0.0733 
     79 H38        20.6771   -0.9056   18.6943 H         1 <0>         0.0300 
     80 H39        20.1011   -2.1759   19.7896 H         1 <0>         0.0300 
     81 H40        20.9980   -2.0548   14.7941 H         1 <0>         0.0600 
     82 H41        20.2553   -4.5566   13.3969 H         1 <0>         0.0600 
     83 H42        17.2808   -2.2938   13.1191 H         1 <0>         0.0600 
     84 H43        24.1006   -3.8487   13.5452 H         1 <0>         0.3100 
     85 H44        23.3088   -2.3997   13.3413 H         1 <0>         0.3100 
@<TRIPOS>BOND
     1    1   25 1    
     2    1   42 1    
     3    1   43 1    
     4    1   44 1    
     5    2   26 1    
     6    2   45 1    
     7    2   46 1    
     8    2   47 1    
     9    3   32 1    
    10    3   48 1    
    11    3   49 1    
    12    3   50 1    
    13    4   32 1    
    14    4   51 1    
    15    4   52 1    
    16    4   53 1    
    17    5    7 ar   
    18    5    8 ar   
    19    5   54 1    
    20    6    9 ar   
    21    6   10 ar   
    22    6   55 1    
    23    7   12 ar   
    24    7   56 1    
    25    8   13 ar   
    26    8   57 1    
    27    9   14 ar   
    28    9   58 1    
    29   10   15 ar   
    30   10   59 1    
    31   11   16 ar   
    32   11   17 ar   
    33   11   60 1    
    34   12   27 ar   
    35   12   61 1    
    36   13   27 ar   
    37   13   62 1    
    38   14   28 ar   
    39   14   63 1    
    40   15   28 ar   
    41   15   64 1    
    42   16   25 ar   
    43   16   65 1    
    44   17   26 ar   
    45   17   66 1    
    46   18   30 1    
    47   18   34 1    
    48   18   67 1    
    49   18   68 1    
    50   19   31 1    
    51   19   34 1    
    52   19   69 1    
    53   19   70 1    
    54   20   27 1    
    55   20   35 1    
    56   20   71 1    
    57   20   72 1    
    58   21   30 1    
    59   21   35 1    
    60   21   73 1    
    61   21   74 1    
    62   22   31 1    
    63   22   36 1    
    64   22   75 1    
    65   22   76 1    
    66   23   32 1    
    67   23   36 1    
    68   23   77 1    
    69   23   78 1    
    70   24   33 1    
    71   24   40 1    
    72   24   79 1    
    73   24   80 1    
    74   25   29 ar   
    75   26   29 ar   
    76   28   41 1    
    77   29   40 1    
    78   30   31 1    
    79   30   81 1    
    80   31   82 1    
    81   32   83 1    
    82   33   35 am   BACKBONE|DICT|INTERRES
    83   33   37 2    
    84   34   84 1    
    85   34   85 1    
    86   36   41 1    
    87   38   41 2    
    88   39   41 2    
@<TRIPOS>SUBSTRUCTURE
     1 <0>         1 GROUP             0       ****    0 ROOT    
@<TRIPOS>MOLECULE
hivpr-ligand
85   88    1
SMALL
USER_CHARGES


@<TRIPOS>ATOM
      1 C1         24.7602   -1.6315   18.5248 C.3       1 <0>        -0.0650 
      2 C2         21.1188    0.3900   21.4717 C.3       1 <0>        -0.0650 
      3 C3         16.6245   -2.8264   12.3569 C.3       1 <0>        -0.1800 
      4 C4         16.2293   -5.1960   11.5999 C.3       1 <0>        -0.1800 
      5 C5         15.8642   -4.2394   19.5097 C.ar      1 <0>        -0.1150 
      6 C6         18.5154    1.7634    9.7352 C.ar      1 <0>        -0.1150 
      7 C7         16.6282   -4.9300   18.5500 C.ar      1 <0>        -0.1150 
      8 C8         16.0842   -2.8647   19.7233 C.ar      1 <0>        -0.1150 
      9 C9         19.8790    1.4134    9.7305 C.ar      1 <0>        -0.1150 
     10 C10        17.5280    0.7587    9.7316 C.ar      1 <0>        -0.1150 
     11 C11        24.3260    1.8655   19.9962 C.ar      1 <0>        -0.1150 
     12 C12        17.6101   -4.2467   17.8048 C.ar      1 <0>        -0.1150 
     13 C13        17.0691   -2.1840   18.9806 C.ar      1 <0>        -0.1150 
     14 C14        20.2592    0.0577    9.7250 C.ar      1 <0>        -0.1150 
     15 C15        17.9030   -0.6009    9.7198 C.ar      1 <0>        -0.1150 
     16 C16        24.8559    0.7660   19.2983 C.ar      1 <0>        -0.1150 
     17 C17        23.1059    1.7360   20.6855 C.ar      1 <0>        -0.1150 
     18 C18        22.7058   -3.4145   14.9743 C.3       1 <0>         0.1700 
     19 C19        22.2946   -3.8676   12.6882 C.3       1 <0>         0.1700 
     20 C20        18.8715   -2.0992   17.1917 C.3       1 <0>         0.0650 
     21 C21        20.2694   -3.6171   15.8157 C.3       1 <0>        -0.0500 
     22 C22        20.0767   -2.5961   12.5000 C.3       1 <0>         0.0588 
     23 C23        18.5281   -4.3388   11.5559 C.3       1 <0>         0.0588 
     24 C24        21.0328   -1.8026   19.1616 C.3       1 <0>         0.1400 
     25 C25        24.1612   -0.4603   19.2756 C.ar      1 <0>        -0.1150 
     26 C26        22.4017    0.5134   20.6692 C.ar      1 <0>        -0.1150 
     27 C27        17.8390   -2.8673   18.0143 C.ar      1 <0>        -0.1150 
     28 C28        19.2681   -0.9457    9.7238 C.ar      1 <0>         0.1567 
     29 C29        22.9183   -0.5872   19.9403 C.ar      1 <0>         0.0850 
     30 C30        21.2377   -3.0429   14.7519 C.3       1 <0>        -0.0600 
     31 C31        20.9387   -3.5789   13.3349 C.3       1 <0>        -0.0233 
     32 C32        17.0634   -3.9396   11.3894 C.3       1 <0>        -0.0233 
     33 C33        21.1251   -2.8032   17.9934 C.2       1 <0>         0.5000 
     34 N1         23.3002   -3.3835   13.6353 N.4       1 <0>        -0.2000 
     35 N2         20.1609   -2.7985   17.0376 N.am      1 <0>        -0.1400 
     36 N3         19.4522   -3.2232   11.3167 N.pl3     1 <0>        -0.5376 
     37 O1         22.0884   -3.5727   17.9444 O.2       1 <0>        -0.5000 
     38 O2         18.8686   -3.3923    8.7743 O.2       1 <0>        -0.4680 
     39 O3         21.2094   -2.7259    9.4800 O.2       1 <0>        -0.4680 
     40 O4         22.2557   -1.7921   19.8993 O.3       1 <0>        -0.2850 
     41 S1         19.7610   -2.6674    9.6949 S.o2      1 <0>         0.8327 
     42 H1         25.8481   -1.5721   18.5262 H         1 <0>         0.0600 
     43 H2         24.4815   -2.5843   18.9718 H         1 <0>         0.0600 
     44 H3         24.4095   -1.6245   17.4927 H         1 <0>         0.0600 
     45 H4         21.0988    1.1118   22.2881 H         1 <0>         0.0600 
     46 H5         20.2514    0.5649   20.8364 H         1 <0>         0.0600 
     47 H6         21.0340   -0.6028   21.9137 H         1 <0>         0.0600 
     48 H7         16.7782   -3.1158   13.3973 H         1 <0>         0.0600 
     49 H8         17.1729   -1.9021   12.1848 H         1 <0>         0.0600 
     50 H9         15.5696   -2.5939   12.2288 H         1 <0>         0.0600 
     51 H10        16.2451   -5.5355   12.6369 H         1 <0>         0.0600 
     52 H11        15.2096   -4.9807   11.3260 H         1 <0>         0.0600 
     53 H12        16.5599   -6.0197   10.9648 H         1 <0>         0.0600 
     54 H13        15.1084   -4.7623   20.0787 H         1 <0>         0.1150 
     55 H14        18.2338    2.8057    9.7430 H         1 <0>         0.1150 
     56 H15        16.4589   -5.9839   18.3816 H         1 <0>         0.1150 
     57 H16        15.4922   -2.3307   20.4536 H         1 <0>         0.1150 
     58 H17        20.6330    2.1862    9.7398 H         1 <0>         0.1150 
     59 H18        16.4826    1.0330    9.7371 H         1 <0>         0.1150 
     60 H19        24.8645    2.8022   20.0168 H         1 <0>         0.1150 
     61 H20        18.1767   -4.7983   17.0701 H         1 <0>         0.1150 
     62 H21        17.2210   -1.1281   19.1509 H         1 <0>         0.1150 
     63 H22        21.3076   -0.2009    9.7323 H         1 <0>         0.1150 
     64 H23        17.1498   -1.3728    9.7132 H         1 <0>         0.1150 
     65 H24        25.8002    0.8679   18.7822 H         1 <0>         0.1150 
     66 H25        22.7184    2.5768   21.2403 H         1 <0>         0.1150 
     67 H26        22.8041   -4.4235   15.3776 H         1 <0>         0.0600 
     68 H27        23.2183   -2.7236   15.6445 H         1 <0>         0.0600 
     69 H28        22.4265   -4.9401   12.5385 H         1 <0>         0.0600 
     70 H29        22.4093   -3.3840   11.7250 H         1 <0>         0.0600 
     71 H30        19.0076   -1.1014   17.6066 H         1 <0>         0.0600 
     72 H31        18.4306   -1.9054   16.2115 H         1 <0>         0.0600 
     73 H32        19.2831   -3.7173   15.3604 H         1 <0>         0.0600 
     74 H33        20.5492   -4.6395   16.0777 H         1 <0>         0.0600 
     75 H34        20.6739   -1.7356   12.1926 H         1 <0>         0.0733 
     76 H35        19.2837   -2.1931   13.1304 H         1 <0>         0.0733 
     77 H36        18.7828   -5.1455   10.8663 H         1 <0>         0.0733 
     78 H37        18.6381   -4.7502   12.5559 H         1 <0>         0.0733 
     79 H38        20.8022   -0.8085   18.7774 H         1 <0>         0.0300 
     80 H39        20.2216   -2.1009   19.8262 H         1 <0>         0.0300 
     81 H40        21.1616   -1.9533   14.7329 H         1 <0>         0.0600 
     82 H41        20.4561   -4.5449   13.4598 H         1 <0>         0.0600 
     83 H42        16.8896   -3.5988   10.3698 H         1 <0>         0.0600 
     84 H43        24.1704   -3.8921   13.5829 H         1 <0>         0.3100 
     85 H44        23.4672   -2.3956   13.4301 H         1 <0>         0.3100 
@<TRIPOS>BOND
     1    1   25 1    
     2    1   42 1    
     3    1   43 1    
     4    1   44 1    
     5    2   26 1    
     6    2   45 1    
     7    2   46 1    
     8    2   47 1    
     9    3   32 1    
    10    3   48 1    
    11    3   49 1    
    12    3   50 1    
    13    4   32 1    
    14    4   51 1    
    15    4   52 1    
    16    4   53 1    
    17    5    7 ar   
    18    5    8 ar   
    19    5   54 1    
    20    6    9 ar   
    21    6   10 ar   
    22    6   55 1    
    23    7   12 ar   
    24    7   56 1    
    25    8   13 ar   
    26    8   57 1    
    27    9   14 ar   
    28    9   58 1    
    29   10   15 ar   
    30   10   59 1    
    31   11   16 ar   
    32   11   17 ar   
    33   11   60 1    
    34   12   27 ar   
    35   12   61 1    
    36   13   27 ar   
    37   13   62 1    
    38   14   28 ar   
    39   14   63 1    
    40   15   28 ar   
    41   15   64 1    
    42   16   25 ar   
    43   16   65 1    
    44   17   26 ar   
    45   17   66 1    
    46   18   30 1    
    47   18   34 1    
    48   18   67 1    
    49   18   68 1    
    50   19   31 1    
    51   19   34 1    
    52   19   69 1    
    53   19   70 1    
    54   20   27 1    
    55   20   35 1    
    56   20   71 1    
    57   20   72 1    
    58   21   30 1    
    59   21   35 1    
    60   21   73 1    
    61   21   74 1    
    62   22   31 1    
    63   22   36 1    
    64   22   75 1    
    65   22   76 1    
    66   23   32 1    
    67   23   36 1    
    68   23   77 1    
    69   23   78 1    
    70   24   33 1    
    71   24   40 1    
    72   24   79 1    
    73   24   80 1    
    74   25   29 ar   
    75   26   29 ar   
    76   28   41 1    
    77   29   40 1    
    78   30   31 1    
    79   30   81 1    
    80   31   82 1    
    81   32   83 1    
    82   33   35 am   BACKBONE|DICT|INTERRES
    83   33   37 2    
    84   34   84 1    
    85   34   85 1    
    86   36   41 1    
    87   38   41 2    
    88   39   41 2    
@<TRIPOS>SUBSTRUCTURE
     1 <0>         1 GROUP             0       ****    0 ROOT    
@<TRIPOS>MOLECULE
hivpr-ligand
85   88    1
SMALL
USER_CHARGES


@<TRIPOS>ATOM
      1 C1         17.7870    0.4344   21.5781 C.3       1 <0>        -0.0650 
      2 C2         20.1153    0.8762   17.0628 C.3       1 <0>        -0.0650 
      3 C3         16.1522   -3.0934   14.2757 C.3       1 <0>        -0.1800 
      4 C4         16.0106   -4.7508   12.4091 C.3       1 <0>        -0.1800 
      5 C5         15.2593   -5.2790   19.2903 C.ar      1 <0>        -0.1150 
      6 C6         21.1305    0.2312    8.5427 C.ar      1 <0>        -0.1150 
      7 C7         16.3544   -5.9982   18.7747 C.ar      1 <0>        -0.1150 
      8 C8         15.1564   -3.8977   19.0570 C.ar      1 <0>        -0.1150 
      9 C9         20.9553   -1.0508    9.0997 C.ar      1 <0>        -0.1150 
     10 C10        20.4101    1.3286    9.0559 C.ar      1 <0>        -0.1150 
     11 C11        17.3913    2.9734   18.7393 C.ar      1 <0>        -0.1150 
     12 C12        17.3598   -5.3349   18.0398 C.ar      1 <0>        -0.1150 
     13 C13        16.1496   -3.2406   18.3119 C.ar      1 <0>        -0.1150 
     14 C14        20.0458   -1.2433   10.1601 C.ar      1 <0>        -0.1150 
     15 C15        19.5088    1.1424   10.1238 C.ar      1 <0>        -0.1150 
     16 C16        17.2108    2.2905   19.9558 C.ar      1 <0>        -0.1150 
     17 C17        18.3319    2.5090   17.8029 C.ar      1 <0>        -0.1150 
     18 C18        22.6320   -3.4884   15.0298 C.3       1 <0>         0.1700 
     19 C19        21.5382   -2.9018   13.0070 C.3       1 <0>         0.1700 
     20 C20        18.2813   -3.2240   16.9361 C.3       1 <0>         0.0650 
     21 C21        20.6456   -3.8835   16.5646 C.3       1 <0>        -0.0500 
     22 C22        19.4528   -1.7732   13.9669 C.3       1 <0>         0.0588 
     23 C23        17.9241   -3.1150   12.3601 C.3       1 <0>         0.0588 
     24 C24        19.0928   -1.6536   19.3285 C.3       1 <0>         0.1400 
     25 C25        17.9859    1.1498   20.2525 C.ar      1 <0>        -0.1150 
     26 C26        19.1081    1.3673   18.0856 C.ar      1 <0>        -0.1150 
     27 C27        17.2592   -3.9486   17.8012 C.ar      1 <0>        -0.1150 
     28 C28        19.3217   -0.1435   10.6697 C.ar      1 <0>         0.1567 
     29 C29        18.9422    0.6898   19.3161 C.ar      1 <0>         0.0850 
     30 C30        21.2507   -2.9765   15.4493 C.3       1 <0>        -0.0600 
     31 C31        20.4625   -2.9472   14.1114 C.3       1 <0>        -0.0233 
     32 C32        16.4498   -3.3259   12.7887 C.3       1 <0>        -0.0233 
     33 C33        20.0741   -2.5329   18.5392 C.2       1 <0>         0.5000 
     34 N1         22.8460   -2.9835   13.6701 N.4       1 <0>        -0.2000 
     35 N2         19.6670   -3.1899   17.4228 N.am      1 <0>        -0.1400 
     36 N3         18.5308   -1.8285   12.7965 N.pl3     1 <0>        -0.5376 
     37 O1         21.2390   -2.5903   18.9387 O.2       1 <0>        -0.5000 
     38 O2         18.2898    0.7608   12.9422 O.2       1 <0>        -0.4680 
     39 O3         16.8097   -0.5368   11.3244 O.2       1 <0>        -0.4680 
     40 O4         19.7208   -0.4045   19.5985 O.3       1 <0>        -0.2850 
     41 S1         18.1100   -0.3401   11.9817 S.o2      1 <0>         0.8327 
     42 H1         17.3023    1.0836   22.3066 H         1 <0>         0.0600 
     43 H2         17.1621   -0.4487   21.4425 H         1 <0>         0.0600 
     44 H3         18.7439    0.1198   21.9946 H         1 <0>         0.0600 
     45 H4         20.0197    1.4175   16.1209 H         1 <0>         0.0600 
     46 H5         21.1316    1.0100   17.4372 H         1 <0>         0.0600 
     47 H6         19.9579   -0.1793   16.8430 H         1 <0>         0.0600 
     48 H7         16.4711   -3.9421   14.8757 H         1 <0>         0.0600 
     49 H8         16.6114   -2.1844   14.6568 H         1 <0>         0.0600 
     50 H9         15.0792   -2.9900   14.4337 H         1 <0>         0.0600 
     51 H10        16.6790   -5.5001   12.8370 H         1 <0>         0.0600 
     52 H11        15.0110   -4.9781   12.7834 H         1 <0>         0.0600 
     53 H12        16.0062   -4.8888   11.3268 H         1 <0>         0.0600 
     54 H13        14.4883   -5.7843   19.8486 H         1 <0>         0.1150 
     55 H14        21.8272    0.3738    7.7298 H         1 <0>         0.1150 
     56 H15        16.4137   -7.0621   18.9436 H         1 <0>         0.1150 
     57 H16        14.3134   -3.3427   19.4440 H         1 <0>         0.1150 
     58 H17        21.5185   -1.8865    8.7105 H         1 <0>         0.1150 
     59 H18        20.5504    2.3137    8.6331 H         1 <0>         0.1150 
     60 H19        16.8065    3.8543   18.5254 H         1 <0>         0.1150 
     61 H20        18.1981   -5.8896   17.6430 H         1 <0>         0.1150 
     62 H21        16.0474   -2.1853   18.1248 H         1 <0>         0.1150 
     63 H22        19.9135   -2.2335   10.5643 H         1 <0>         0.1150 
     64 H23        18.9497    1.9829   10.5106 H         1 <0>         0.1150 
     65 H24        16.4794    2.6497   20.6643 H         1 <0>         0.1150 
     66 H25        18.4598    3.0364   16.8684 H         1 <0>         0.1150 
     67 H26        22.6427   -4.5787   14.9917 H         1 <0>         0.0600 
     68 H27        23.4267   -3.1648   15.7042 H         1 <0>         0.0600 
     69 H28        21.4196   -3.7361   12.3147 H         1 <0>         0.0600 
     70 H29        21.5062   -1.9803   12.4262 H         1 <0>         0.0600 
     71 H30        17.9346   -2.2072   16.7500 H         1 <0>         0.0600 
     72 H31        18.2760   -3.7113   15.9638 H         1 <0>         0.0600 
     73 H32        20.2053   -4.7877   16.1415 H         1 <0>         0.0600 
     74 H33        21.4556   -4.2702   17.1842 H         1 <0>         0.0600 
     75 H34        20.0241   -0.8444   13.9142 H         1 <0>         0.0733 
     76 H35        18.8509   -1.6688   14.8612 H         1 <0>         0.0733 
     77 H36        17.9533   -3.1417   11.2715 H         1 <0>         0.0733 
     78 H37        18.5115   -3.9715   12.6668 H         1 <0>         0.0733 
     79 H38        18.1549   -1.4928   18.8038 H         1 <0>         0.0300 
     80 H39        18.8454   -2.1506   20.2667 H         1 <0>         0.0300 
     81 H40        21.3842   -1.9579   15.8166 H         1 <0>         0.0600 
     82 H41        19.9623   -3.9109   14.0630 H         1 <0>         0.0600 
     83 H42        15.8235   -2.6299   12.2317 H         1 <0>         0.0600 
     84 H43        23.5102   -3.5331   13.1491 H         1 <0>         0.3100 
     85 H44        23.1947   -2.0082   13.7242 H         1 <0>         0.3100 
@<TRIPOS>BOND
     1    1   25 1    
     2    1   42 1    
     3    1   43 1    
     4    1   44 1    
     5    2   26 1    
     6    2   45 1    
     7    2   46 1    
     8    2   47 1    
     9    3   32 1    
    10    3   48 1    
    11    3   49 1    
    12    3   50 1    
    13    4   32 1    
    14    4   51 1    
    15    4   52 1    
    16    4   53 1    
    17    5    7 ar   
    18    5    8 ar   
    19    5   54 1    
    20    6    9 ar   
    21    6   10 ar   
    22    6   55 1    
    23    7   12 ar   
    24    7   56 1    
    25    8   13 ar   
    26    8   57 1    
    27    9   14 ar   
    28    9   58 1    
    29   10   15 ar   
    30   10   59 1    
    31   11   16 ar   
    32   11   17 ar   
    33   11   60 1    
    34   12   27 ar   
    35   12   61 1    
    36   13   27 ar   
    37   13   62 1    
    38   14   28 ar   
    39   14   63 1    
    40   15   28 ar   
    41   15   64 1    
    42   16   25 ar   
    43   16   65 1    
    44   17   26 ar   
    45   17   66 1    
    46   18   30 1    
    47   18   34 1    
    48   18   67 1    
    49   18   68 1    
    50   19   31 1    
    51   19   34 1    
    52   19   69 1    
    53   19   70 1    
    54   20   27 1    
    55   20   35 1    
    56   20   71 1    
    57   20   72 1    
    58   21   30 1    
    59   21   35 1    
    60   21   73 1    
    61   21   74 1    
    62   22   31 1    
    63   22   36 1    
    64   22   75 1    
    65   22   76 1    
    66   23   32 1    
    67   23   36 1    
    68   23   77 1    
    69   23   78 1    
    70   24   33 1    
    71   24   40 1    
    72   24   79 1    
    73   24   80 1    
    74   25   29 ar   
    75   26   29 ar   
    76   28   41 1    
    77   29   40 1    
    78   30   31 1    
    79   30   81 1    
    80   31   82 1    
    81   32   83 1    
    82   33   35 am   BACKBONE|DICT|INTERRES
    83   33   37 2    
    84   34   84 1    
    85   34   85 1    
    86   36   41 1    
    87   38   41 2    
    88   39   41 2    
@<TRIPOS>SUBSTRUCTURE
     1 <0>         1 GROUP             0       ****    0 ROOT    
@<TRIPOS>MOLECULE
hivpr-ligand
85   88    1
SMALL
USER_CHARGES


@<TRIPOS>ATOM
      1 C1         18.9927    1.6349   18.7462 C.3       1 <0>        -0.0650 
      2 C2         22.5740   -1.3875   20.8557 C.3       1 <0>        -0.0650 
      3 C3         17.7486   -4.5837    9.0945 C.3       1 <0>        -0.1800 
      4 C4         19.7736   -3.0848    9.0739 C.3       1 <0>        -0.1800 
      5 C5         15.1879   -5.3134   19.1420 C.ar      1 <0>        -0.1150 
      6 C6         18.4860    1.7231    9.4465 C.ar      1 <0>        -0.1150 
      7 C7         15.1672   -3.9100   19.2088 C.ar      1 <0>        -0.1150 
      8 C8         16.0535   -5.9655   18.2434 C.ar      1 <0>        -0.1150 
      9 C9         19.6372    1.0576    9.9007 C.ar      1 <0>        -0.1150 
     10 C10        17.2289    1.3610    9.9612 C.ar      1 <0>        -0.1150 
     11 C11        22.5443    2.3252   19.9730 C.ar      1 <0>        -0.1150 
     12 C12        16.0260   -3.1583   18.3852 C.ar      1 <0>        -0.1150 
     13 C13        16.8978   -5.2088   17.4030 C.ar      1 <0>        -0.1150 
     14 C14        19.5238    0.0423   10.8683 C.ar      1 <0>        -0.1150 
     15 C15        17.1141    0.3429   10.9308 C.ar      1 <0>        -0.1150 
     16 C16        21.2732    2.4739   19.3899 C.ar      1 <0>        -0.1150 
     17 C17        22.9424    1.0700   20.4639 C.ar      1 <0>        -0.1150 
     18 C18        22.2707   -3.0530   15.6306 C.3       1 <0>         0.1700 
     19 C19        22.6917   -3.8846   13.4827 C.3       1 <0>         0.1700 
     20 C20        17.7982   -2.9924   16.5570 C.3       1 <0>         0.0650 
     21 C21        19.9084   -4.0864   15.8241 C.3       1 <0>        -0.0500 
     22 C22        20.6970   -2.7389   12.4606 C.3       1 <0>         0.0588 
     23 C23        18.8247   -3.9464   11.2961 C.3       1 <0>         0.0588 
     24 C24        19.4677   -1.3313   18.3833 C.3       1 <0>         0.1400 
     25 C25        20.3858    1.3758   19.3031 C.ar      1 <0>        -0.1150 
     26 C26        22.0828   -0.0428   20.3571 C.ar      1 <0>        -0.1150 
     27 C27        16.8819   -3.8006   17.4641 C.ar      1 <0>        -0.1150 
     28 C28        18.2682   -0.3176   11.3892 C.ar      1 <0>         0.1567 
     29 C29        20.8078    0.0887   19.7558 C.ar      1 <0>         0.0850 
     30 C30        20.8881   -3.2235   14.9840 C.3       1 <0>        -0.0600 
     31 C31        21.1660   -3.7313   13.5491 C.3       1 <0>        -0.0233 
     32 C32        18.5100   -3.4875    9.8535 C.3       1 <0>        -0.0233 
     33 C33        19.8705   -2.7378   17.8980 C.2       1 <0>         0.5000 
     34 N1         23.2095   -2.9840   14.5172 N.4       1 <0>        -0.2000 
     35 N2         19.2182   -3.2599   16.8286 N.am      1 <0>        -0.1400 
     36 N3         19.2529   -2.8427   12.1779 N.pl3     1 <0>        -0.5376 
     37 O1         20.8865   -3.2613   18.3571 O.2       1 <0>        -0.5000 
     38 O2         18.5783   -1.0225   13.9176 O.2       1 <0>        -0.4680 
     39 O3         16.7785   -2.1836   12.5455 O.2       1 <0>        -0.4680 
     40 O4         20.0306   -1.0498   19.6603 O.3       1 <0>        -0.2850 
     41 S1         18.1236   -1.5988   12.6456 S.o2      1 <0>         0.8327 
     42 H1         18.7186    2.6862   18.8447 H         1 <0>         0.0600 
     43 H2         18.9460    1.3894   17.6828 H         1 <0>         0.0600 
     44 H3         18.2436    1.0450   19.2770 H         1 <0>         0.0600 
     45 H4         23.1189   -1.8793   20.0487 H         1 <0>         0.0600 
     46 H5         23.2387   -1.2796   21.7146 H         1 <0>         0.0600 
     47 H6         21.7503   -2.0412   21.1497 H         1 <0>         0.0600 
     48 H7         18.3391   -5.4946    9.0146 H         1 <0>         0.0600 
     49 H8         16.8191   -4.8318    9.6048 H         1 <0>         0.0600 
     50 H9         17.4854   -4.2618    8.0899 H         1 <0>         0.0600 
     51 H10        20.4812   -3.9146    9.0036 H         1 <0>         0.0600 
     52 H11        19.5268   -2.7575    8.0629 H         1 <0>         0.0600 
     53 H12        20.2898   -2.2458    9.5370 H         1 <0>         0.0600 
     54 H13        14.5288   -5.8949   19.7737 H         1 <0>         0.1150 
     55 H14        18.5661    2.5088    8.7083 H         1 <0>         0.1150 
     56 H15        14.4982   -3.4134   19.9012 H         1 <0>         0.1150 
     57 H16        16.0669   -7.0441   18.1984 H         1 <0>         0.1150 
     58 H17        20.6065    1.3279    9.5090 H         1 <0>         0.1150 
     59 H18        16.3469    1.8641    9.6010 H         1 <0>         0.1150 
     60 H19        23.2174    3.1682   20.0546 H         1 <0>         0.1150 
     61 H20        16.0176   -2.0805   18.4615 H         1 <0>         0.1150 
     62 H21        17.5497   -5.7115   16.7064 H         1 <0>         0.1150 
     63 H22        20.4050   -0.4451   11.2146 H         1 <0>         0.1150 
     64 H23        16.1424    0.0796   11.3241 H         1 <0>         0.1150 
     65 H24        20.9720    3.4388   19.0143 H         1 <0>         0.1150 
     66 H25        23.9182    0.9652   20.9197 H         1 <0>         0.1150 
     67 H26        22.5347   -3.9219   16.2350 H         1 <0>         0.0600 
     68 H27        22.3420   -2.1701   16.2629 H         1 <0>         0.0600 
     69 H28        22.9738   -4.9040   13.7403 H         1 <0>         0.0600 
     70 H29        23.1263   -3.6553   12.5090 H         1 <0>         0.0600 
     71 H30        17.6032   -1.9247   16.6158 H         1 <0>         0.0600 
     72 H31        17.5368   -3.2405   15.5247 H         1 <0>         0.0600 
     73 H32        19.1778   -4.5511   15.1576 H         1 <0>         0.0600 
     74 H33        20.4157   -4.9232   16.3029 H         1 <0>         0.0600 
     75 H34        21.2319   -2.9217   11.5304 H         1 <0>         0.0733 
     76 H35        20.9604   -1.7251   12.7580 H         1 <0>         0.0733 
     77 H36        19.5814   -4.7283   11.2796 H         1 <0>         0.0733 
     78 H37        17.9376   -4.3994   11.7437 H         1 <0>         0.0733 
     79 H38        19.8743   -0.6696   17.6134 H         1 <0>         0.0300 
     80 H39        18.3900   -1.1686   18.4421 H         1 <0>         0.0300 
     81 H40        20.4662   -2.2215   14.9066 H         1 <0>         0.0600 
     82 H41        20.7150   -4.7055   13.3793 H         1 <0>         0.0600 
     83 H42        17.8489   -2.6262    9.8984 H         1 <0>         0.0600 
     84 H43        24.1472   -3.2239   14.7993 H         1 <0>         0.3100 
     85 H44        23.2102   -2.0274   14.1306 H         1 <0>         0.3100 
@<TRIPOS>BOND
     1    1   25 1    
     2    1   42 1    
     3    1   43 1    
     4    1   44 1    
     5    2   26 1    
     6    2   45 1    
     7    2   46 1    
     8    2   47 1    
     9    3   32 1    
    10    3   48 1    
    11    3   49 1    
    12    3   50 1    
    13    4   32 1    
    14    4   51 1    
    15    4   52 1    
    16    4   53 1    
    17    5    7 ar   
    18    5    8 ar   
    19    5   54 1    
    20    6    9 ar   
    21    6   10 ar   
    22    6   55 1    
    23    7   12 ar   
    24    7   56 1    
    25    8   13 ar   
    26    8   57 1    
    27    9   14 ar   
    28    9   58 1    
    29   10   15 ar   
    30   10   59 1    
    31   11   16 ar   
    32   11   17 ar   
    33   11   60 1    
    34   12   27 ar   
    35   12   61 1    
    36   13   27 ar   
    37   13   62 1    
    38   14   28 ar   
    39   14   63 1    
    40   15   28 ar   
    41   15   64 1    
    42   16   25 ar   
    43   16   65 1    
    44   17   26 ar   
    45   17   66 1    
    46   18   30 1    
    47   18   34 1    
    48   18   67 1    
    49   18   68 1    
    50   19   31 1    
    51   19   34 1    
    52   19   69 1    
    53   19   70 1    
    54   20   27 1    
    55   20   35 1    
    56   20   71 1    
    57   20   72 1    
    58   21   30 1    
    59   21   35 1    
    60   21   73 1    
    61   21   74 1    
    62   22   31 1    
    63   22   36 1    
    64   22   75 1    
    65   22   76 1    
    66   23   32 1    
    67   23   36 1    
    68   23   77 1    
    69   23   78 1    
    70   24   33 1    
    71   24   40 1    
    72   24   79 1    
    73   24   80 1    
    74   25   29 ar   
    75   26   29 ar   
    76   28   41 1    
    77   29   40 1    
    78   30   31 1    
    79   30   81 1    
    80   31   82 1    
    81   32   83 1    
    82   33   35 am   BACKBONE|DICT|INTERRES
    83   33   37 2    
    84   34   84 1    
    85   34   85 1    
    86   36   41 1    
    87   38   41 2    
    88   39   41 2    
@<TRIPOS>SUBSTRUCTURE
     1 <0>         1 GROUP             0       ****    0 ROOT    
@<TRIPOS>MOLECULE
hivpr-ligand
85   88    1
SMALL
USER_CHARGES


@<TRIPOS>ATOM
      1 C1         19.1967    0.9252   17.2481 C.3       1 <0>        -0.0650 
      2 C2         19.5344   -0.7778   22.0845 C.3       1 <0>        -0.0650 
      3 C3         16.4397   -4.8253   12.2736 C.3       1 <0>        -0.1800 
      4 C4         16.5690   -2.3412   11.9396 C.3       1 <0>        -0.1800 
      5 C5         15.3972   -5.1967   19.2300 C.ar      1 <0>        -0.1150 
      6 C6         17.2545    1.8082   11.1515 C.ar      1 <0>        -0.1150 
      7 C7         16.3982   -5.8073   18.4526 C.ar      1 <0>        -0.1150 
      8 C8         15.3624   -3.7948   19.3542 C.ar      1 <0>        -0.1150 
      9 C9         18.3247    1.4689   11.9934 C.ar      1 <0>        -0.1150 
     10 C10        17.0619    1.1043    9.9502 C.ar      1 <0>        -0.1150 
     11 C11        17.2112    1.7468   20.4048 C.ar      1 <0>        -0.1150 
     12 C12        17.3591   -5.0185   17.7904 C.ar      1 <0>        -0.1150 
     13 C13        16.3216   -3.0064   18.6900 C.ar      1 <0>        -0.1150 
     14 C14        19.2051    0.4301   11.6324 C.ar      1 <0>        -0.1150 
     15 C15        17.9089    0.0377    9.5974 C.ar      1 <0>        -0.1150 
     16 C16        17.6700    1.7384   19.0758 C.ar      1 <0>        -0.1150 
     17 C17        17.8128    0.9077   21.3597 C.ar      1 <0>        -0.1150 
     18 C18        22.5275   -3.4814   15.2516 C.3       1 <0>         0.1700 
     19 C19        22.1988   -3.9833   12.9798 C.3       1 <0>         0.1700 
     20 C20        18.3283   -2.7270   17.1643 C.3       1 <0>         0.0650 
     21 C21        20.1004   -4.0154   15.9955 C.3       1 <0>        -0.0500 
     22 C22        20.1728   -2.4665   12.7487 C.3       1 <0>         0.0588 
     23 C23        18.5699   -3.8349   11.3278 C.3       1 <0>         0.0588 
     24 C24        20.1166   -2.2236   19.4409 C.3       1 <0>         0.1400 
     25 C25        18.7233    0.8845   18.6921 C.ar      1 <0>        -0.1150 
     26 C26        18.8711    0.0491   20.9944 C.ar      1 <0>        -0.1150 
     27 C27        17.3252   -3.6101   17.9012 C.ar      1 <0>        -0.1150 
     28 C28        18.9707   -0.3111   10.4527 C.ar      1 <0>         0.1567 
     29 C29        19.3096    0.0080   19.6408 C.ar      1 <0>         0.0850 
     30 C30        21.0262   -3.2571   15.0100 C.3       1 <0>        -0.0600 
     31 C31        20.8034   -3.6413   13.5233 C.3       1 <0>        -0.0233 
     32 C32        17.3720   -3.6040   12.2870 C.3       1 <0>        -0.0233 
     33 C33        20.5800   -2.9953   18.2001 C.2       1 <0>         0.5000 
     34 N1         23.1464   -3.3831   13.9268 N.4       1 <0>        -0.2000 
     35 N2         19.7176   -3.2206   17.1763 N.am      1 <0>        -0.1400 
     36 N3         19.6628   -2.8312   11.4105 N.pl3     1 <0>        -0.5376 
     37 O1         21.7425   -3.4021   18.1847 O.2       1 <0>        -0.5000 
     38 O2         19.4514   -2.3855    8.8490 O.2       1 <0>        -0.4680 
     39 O3         21.3835   -1.3489   10.1316 O.2       1 <0>        -0.4680 
     40 O4         20.3145   -0.8311   19.2157 O.3       1 <0>        -0.2850 
     41 S1         19.9722   -1.7505   10.0711 S.o2      1 <0>         0.8327 
     42 H1         19.3571    1.9567   16.9358 H         1 <0>         0.0600 
     43 H2         20.1332    0.3885   17.0993 H         1 <0>         0.0600 
     44 H3         18.4444    0.4879   16.5925 H         1 <0>         0.0600 
     45 H4         19.3883   -0.3233   23.0650 H         1 <0>         0.0600 
     46 H5         19.1131   -1.7818   22.1169 H         1 <0>         0.0600 
     47 H6         20.6104   -0.8498   21.9227 H         1 <0>         0.0600 
     48 H7         16.0103   -4.9849   11.2841 H         1 <0>         0.0600 
     49 H8         16.9705   -5.7334   12.5593 H         1 <0>         0.0600 
     50 H9         15.6123   -4.6965   12.9729 H         1 <0>         0.0600 
     51 H10        16.2814   -2.3282   10.8879 H         1 <0>         0.0600 
     52 H11        15.6503   -2.2829   12.5245 H         1 <0>         0.0600 
     53 H12        17.1395   -1.4396   12.1507 H         1 <0>         0.0600 
     54 H13        14.6559   -5.8056   19.7263 H         1 <0>         0.1150 
     55 H14        16.5769    2.6022   11.4309 H         1 <0>         0.1150 
     56 H15        16.4245   -6.8836   18.3598 H         1 <0>         0.1150 
     57 H16        14.5936   -3.3223   19.9484 H         1 <0>         0.1150 
     58 H17        18.4377    2.0019   12.9236 H         1 <0>         0.1150 
     59 H18        16.2291    1.3712    9.3248 H         1 <0>         0.1150 
     60 H19        16.4095    2.4099   20.6947 H         1 <0>         0.1150 
     61 H20        18.1124   -5.5105   17.1944 H         1 <0>         0.1150 
     62 H21        16.2798   -1.9309   18.7884 H         1 <0>         0.1150 
     63 H22        20.0092    0.1821   12.2995 H         1 <0>         0.1150 
     64 H23        17.7244   -0.5179    8.6900 H         1 <0>         0.1150 
     65 H24        17.2097    2.3909   18.3471 H         1 <0>         0.1150 
     66 H25        17.4678    0.9383   22.3830 H         1 <0>         0.1150 
     67 H26        22.7219   -4.4761   15.6536 H         1 <0>         0.0600 
     68 H27        22.9566   -2.7501   15.9363 H         1 <0>         0.0600 
     69 H28        22.3429   -5.0643   12.9859 H         1 <0>         0.0600 
     70 H29        22.3674   -3.6340   11.9594 H         1 <0>         0.0600 
     71 H30        18.2850   -1.7179   17.5699 H         1 <0>         0.0600 
     72 H31        17.9792   -2.6124   16.1384 H         1 <0>         0.0600 
     73 H32        19.1941   -4.3208   15.4734 H         1 <0>         0.0600 
     74 H33        20.5548   -4.9551   16.3150 H         1 <0>         0.0600 
     75 H34        20.9397   -1.6986   12.6471 H         1 <0>         0.0733 
     76 H35        19.3693   -2.0046   13.3216 H         1 <0>         0.0733 
     77 H36        18.1957   -3.8963   10.3063 H         1 <0>         0.0733 
     78 H37        19.0036   -4.8148   11.5221 H         1 <0>         0.0733 
     79 H38        19.0863   -2.4738   19.6973 H         1 <0>         0.0300 
     80 H39        20.7315   -2.5435   20.2829 H         1 <0>         0.0300 
     81 H40        20.8421   -2.1860   15.1149 H         1 <0>         0.0600 
     82 H41        20.1694   -4.5247   13.4531 H         1 <0>         0.0600 
     83 H42        17.7299   -3.5132   13.3127 H         1 <0>         0.0600 
     84 H43        24.0635   -3.8052   13.8895 H         1 <0>         0.3100 
     85 H44        23.2173   -2.3834   13.7209 H         1 <0>         0.3100 
@<TRIPOS>BOND
     1    1   25 1    
     2    1   42 1    
     3    1   43 1    
     4    1   44 1    
     5    2   26 1    
     6    2   45 1    
     7    2   46 1    
     8    2   47 1    
     9    3   32 1    
    10    3   48 1    
    11    3   49 1    
    12    3   50 1    
    13    4   32 1    
    14    4   51 1    
    15    4   52 1    
    16    4   53 1    
    17    5    7 ar   
    18    5    8 ar   
    19    5   54 1    
    20    6    9 ar   
    21    6   10 ar   
    22    6   55 1    
    23    7   12 ar   
    24    7   56 1    
    25    8   13 ar   
    26    8   57 1    
    27    9   14 ar   
    28    9   58 1    
    29   10   15 ar   
    30   10   59 1    
    31   11   16 ar   
    32   11   17 ar   
    33   11   60 1    
    34   12   27 ar   
    35   12   61 1    
    36   13   27 ar   
    37   13   62 1    
    38   14   28 ar   
    39   14   63 1    
    40   15   28 ar   
    41   15   64 1    
    42   16   25 ar   
    43   16   65 1    
    44   17   26 ar   
    45   17   66 1    
    46   18   30 1    
    47   18   34 1    
    48   18   67 1    
    49   18   68 1    
    50   19   31 1    
    51   19   34 1    
    52   19   69 1    
    53   19   70 1    
    54   20   27 1    
    55   20   35 1    
    56   20   71 1    
    57   20   72 1    
    58   21   30 1    
    59   21   35 1    
    60   21   73 1    
    61   21   74 1    
    62   22   31 1    
    63   22   36 1    
    64   22   75 1    
    65   22   76 1    
    66   23   32 1    
    67   23   36 1    
    68   23   77 1    
    69   23   78 1    
    70   24   33 1    
    71   24   40 1    
    72   24   79 1    
    73   24   80 1    
    74   25   29 ar   
    75   26   29 ar   
    76   28   41 1    
    77   29   40 1    
    78   30   31 1    
    79   30   81 1    
    80   31   82 1    
    81   32   83 1    
    82   33   35 am   BACKBONE|DICT|INTERRES
    83   33   37 2    
    84   34   84 1    
    85   34   85 1    
    86   36   41 1    
    87   38   41 2    
    88   39   41 2    
@<TRIPOS>SUBSTRUCTURE
     1 <0>         1 GROUP             0       ****    0 ROOT    
@<TRIPOS>MOLECULE
hivpr-ligand
85   88    1
SMALL
USER_CHARGES


@<TRIPOS>ATOM
      1 C1         20.3538   -0.4695   21.6897 C.3       1 <0>        -0.0650 
      2 C2         24.0491   -1.5305   18.3320 C.3       1 <0>        -0.0650 
      3 C3         16.0229   -4.8131   12.4751 C.3       1 <0>        -0.1800 
      4 C4         16.0414   -2.3812   11.8366 C.3       1 <0>        -0.1800 
      5 C5         15.5608   -4.7908   19.3896 C.ar      1 <0>        -0.1150 
      6 C6         18.7602    1.9259    8.8824 C.ar      1 <0>        -0.1150 
      7 C7         16.2857   -5.3610   18.3258 C.ar      1 <0>        -0.1150 
      8 C8         15.7095   -3.4211   19.6844 C.ar      1 <0>        -0.1150 
      9 C9         17.7238    1.0253    9.2024 C.ar      1 <0>        -0.1150 
     10 C10        20.0823    1.4637    8.7237 C.ar      1 <0>        -0.1150 
     11 C11        23.3878    1.5392   20.5112 C.ar      1 <0>        -0.1150 
     12 C12        17.1537   -4.5609   17.5542 C.ar      1 <0>        -0.1150 
     13 C13        16.5825   -2.6221   18.9179 C.ar      1 <0>        -0.1150 
     14 C14        18.0070   -0.3444    9.3630 C.ar      1 <0>        -0.1150 
     15 C15        20.3744    0.0972    8.8961 C.ar      1 <0>        -0.1150 
     16 C16        22.2035    1.1683   21.1740 C.ar      1 <0>        -0.1150 
     17 C17        23.9855    0.6526   19.5971 C.ar      1 <0>        -0.1150 
     18 C18        22.2121   -3.2387   14.7850 C.3       1 <0>         0.1700 
     19 C19        21.9827   -3.1262   12.4259 C.3       1 <0>         0.1700 
     20 C20        18.2408   -2.3070   17.0099 C.3       1 <0>         0.0650 
     21 C21        19.7336   -3.5407   15.4375 C.3       1 <0>        -0.0500 
     22 C22        19.6112   -2.1884   12.2831 C.3       1 <0>         0.0588 
     23 C23        18.0193   -3.8925   11.2653 C.3       1 <0>         0.0588 
     24 C24        20.4063   -2.1232   18.9696 C.3       1 <0>         0.1400 
     25 C25        21.6059   -0.0842   20.9230 C.ar      1 <0>        -0.1150 
     26 C26        23.3942   -0.5990   19.3320 C.ar      1 <0>        -0.1150 
     27 C27        17.3102   -3.1859   17.8466 C.ar      1 <0>        -0.1150 
     28 C28        19.3327   -0.8003    9.2174 C.ar      1 <0>         0.1567 
     29 C29        22.1956   -0.9709   19.9860 C.ar      1 <0>         0.0850 
     30 C30        20.7604   -2.8191   14.5221 C.3       1 <0>        -0.0600 
     31 C31        20.5707   -3.1486   13.0261 C.3       1 <0>        -0.0233 
     32 C32        16.8994   -3.5755   12.2804 C.3       1 <0>        -0.0233 
     33 C33        20.5051   -3.0233   17.7278 C.2       1 <0>         0.5000 
     34 N1         22.9289   -2.9836   13.5380 N.4       1 <0>        -0.2000 
     35 N2         19.5627   -2.9121   16.7610 N.am      1 <0>        -0.1400 
     36 N3         19.0158   -2.8090   11.0808 N.pl3     1 <0>        -0.5376 
     37 O1         21.4707   -3.7833   17.6186 O.2       1 <0>        -0.5000 
     38 O2         18.9465   -3.3244    8.5245 O.2       1 <0>        -0.4680 
     39 O3         21.1663   -2.6856    9.5797 O.2       1 <0>        -0.4680 
     40 O4         21.6269   -2.1917   19.7065 O.3       1 <0>        -0.2850 
     41 S1         19.7064   -2.5275    9.5004 S.o2      1 <0>         0.8327 
     42 H1         20.2112    0.1753   22.5602 H         1 <0>         0.0600 
     43 H2         19.4700   -0.3766   21.0554 H         1 <0>         0.0600 
     44 H3         20.4215   -1.4978   22.0452 H         1 <0>         0.0600 
     45 H4         24.8107   -1.0202   17.7442 H         1 <0>         0.0600 
     46 H5         24.5148   -2.3666   18.8524 H         1 <0>         0.0600 
     47 H6         23.3115   -1.9240   17.6324 H         1 <0>         0.0600 
     48 H7         15.6106   -5.1208   11.5165 H         1 <0>         0.0600 
     49 H8         16.5901   -5.6491   12.8806 H         1 <0>         0.0600 
     50 H9         15.1942   -4.6145   13.1532 H         1 <0>         0.0600 
     51 H10        15.6181   -2.5501   10.8453 H         1 <0>         0.0600 
     52 H11        15.2096   -2.2158   12.5238 H         1 <0>         0.0600 
     53 H12        16.6232   -1.4605   11.8110 H         1 <0>         0.0600 
     54 H13        14.8929   -5.4037   19.9794 H         1 <0>         0.1150 
     55 H14        18.5457    2.9779    8.7612 H         1 <0>         0.1150 
     56 H15        16.1733   -6.4113   18.0985 H         1 <0>         0.1150 
     57 H16        15.1516   -2.9807   20.4987 H         1 <0>         0.1150 
     58 H17        16.7140    1.3909    9.3297 H         1 <0>         0.1150 
     59 H18        20.8702    2.1611    8.4817 H         1 <0>         0.1150 
     60 H19        23.8548    2.4931   20.7152 H         1 <0>         0.1150 
     61 H20        17.6953   -5.0171   16.7388 H         1 <0>         0.1150 
     62 H21        16.6839   -1.5725   19.1563 H         1 <0>         0.1150 
     63 H22        17.2211   -1.0419    9.6071 H         1 <0>         0.1150 
     64 H23        21.3914   -0.2542    8.7884 H         1 <0>         0.1150 
     65 H24        21.7656    1.8432   21.8941 H         1 <0>         0.1150 
     66 H25        24.9025    0.9382   19.1017 H         1 <0>         0.1150 
     67 H26        22.2782   -4.3060   14.9997 H         1 <0>         0.0600 
     68 H27        22.6744   -2.6922   15.6029 H         1 <0>         0.0600 
     69 H28        22.1778   -4.0338   11.8596 H         1 <0>         0.0600 
     70 H29        22.1163   -2.2820   11.7530 H         1 <0>         0.0600 
     71 H30        18.3434   -1.3264   17.4755 H         1 <0>         0.0600 
     72 H31        17.7314   -2.0920   16.0692 H         1 <0>         0.0600 
     73 H32        18.7750   -3.5786   14.9271 H         1 <0>         0.0600 
     74 H33        20.0064   -4.5887   15.5643 H         1 <0>         0.0600 
     75 H34        20.1289   -1.2737   11.9951 H         1 <0>         0.0733 
     76 H35        18.8224   -1.8465   12.9479 H         1 <0>         0.0733 
     77 H36        17.5422   -4.1271   10.3136 H         1 <0>         0.0733 
     78 H37        18.5444   -4.8019   11.5564 H         1 <0>         0.0733 
     79 H38        20.2034   -1.1015   18.6385 H         1 <0>         0.0300 
     80 H39        19.5763   -2.4378   19.6074 H         1 <0>         0.0300 
     81 H40        20.6837   -1.7367   14.6497 H         1 <0>         0.0600 
     82 H41        20.2039   -4.1731   12.9739 H         1 <0>         0.0600 
     83 H42        17.3174   -3.3551   13.2597 H         1 <0>         0.0600 
     84 H43        23.7515   -3.5573   13.4343 H         1 <0>         0.3100 
     85 H44        23.2135   -1.9867   13.5503 H         1 <0>         0.3100 
@<TRIPOS>BOND
     1    1   25 1    
     2    1   42 1    
     3    1   43 1    
     4    1   44 1    
     5    2   26 1    
     6    2   45 1    
     7    2   46 1    
     8    2   47 1    
     9    3   32 1    
    10    3   48 1    
    11    3   49 1    
    12    3   50 1    
    13    4   32 1    
    14    4   51 1    
    15    4   52 1    
    16    4   53 1    
    17    5    7 ar   
    18    5    8 ar   
    19    5   54 1    
    20    6    9 ar   
    21    6   10 ar   
    22    6   55 1    
    23    7   12 ar   
    24    7   56 1    
    25    8   13 ar   
    26    8   57 1    
    27    9   14 ar   
    28    9   58 1    
    29   10   15 ar   
    30   10   59 1    
    31   11   16 ar   
    32   11   17 ar   
    33   11   60 1    
    34   12   27 ar   
    35   12   61 1    
    36   13   27 ar   
    37   13   62 1    
    38   14   28 ar   
    39   14   63 1    
    40   15   28 ar   
    41   15   64 1    
    42   16   25 ar   
    43   16   65 1    
    44   17   26 ar   
    45   17   66 1    
    46   18   30 1    
    47   18   34 1    
    48   18   67 1    
    49   18   68 1    
    50   19   31 1    
    51   19   34 1    
    52   19   69 1    
    53   19   70 1    
    54   20   27 1    
    55   20   35 1    
    56   20   71 1    
    57   20   72 1    
    58   21   30 1    
    59   21   35 1    
    60   21   73 1    
    61   21   74 1    
    62   22   31 1    
    63   22   36 1    
    64   22   75 1    
    65   22   76 1    
    66   23   32 1    
    67   23   36 1    
    68   23   77 1    
    69   23   78 1    
    70   24   33 1    
    71   24   40 1    
    72   24   79 1    
    73   24   80 1    
    74   25   29 ar   
    75   26   29 ar   
    76   28   41 1    
    77   29   40 1    
    78   30   31 1    
    79   30   81 1    
    80   31   82 1    
    81   32   83 1    
    82   33   35 am   BACKBONE|DICT|INTERRES
    83   33   37 2    
    84   34   84 1    
    85   34   85 1    
    86   36   41 1    
    87   38   41 2    
    88   39   41 2    
@<TRIPOS>SUBSTRUCTURE
     1 <0>         1 GROUP             0       ****    0 ROOT    
@<TRIPOS>MOLECULE
hivpr-ligand
85   88    1
SMALL
USER_CHARGES


@<TRIPOS>ATOM
      1 C1         17.3694   -2.3098   19.7415 C.3       1 <0>        -0.0650 
      2 C2         19.6734    0.6676   16.3006 C.3       1 <0>        -0.0650 
      3 C3         20.7003   -3.1284   13.6453 C.3       1 <0>        -0.1800 
      4 C4         18.8599   -1.4857   14.1784 C.3       1 <0>        -0.1800 
      5 C5         15.1804   -4.9926   19.9110 C.ar      1 <0>        -0.1150 
      6 C6         20.8950    1.3315    7.5341 C.ar      1 <0>        -0.1150 
      7 C7         15.8638   -6.1269   19.4343 C.ar      1 <0>        -0.1150 
      8 C8         14.9387   -3.9059   19.0499 C.ar      1 <0>        -0.1150 
      9 C9         19.6382    1.8313    7.9302 C.ar      1 <0>        -0.1150 
     10 C10        21.3094    0.0496    7.9479 C.ar      1 <0>        -0.1150 
     11 C11        17.4999    1.4945   19.3368 C.ar      1 <0>        -0.1150 
     12 C12        16.3023   -6.1754   18.0969 C.ar      1 <0>        -0.1150 
     13 C13        15.3764   -3.9540   17.7124 C.ar      1 <0>        -0.1150 
     14 C14        18.7911    1.0476    8.7379 C.ar      1 <0>        -0.1150 
     15 C15        20.4655   -0.7381    8.7556 C.ar      1 <0>        -0.1150 
     16 C16        17.1971    0.2147   19.8366 C.ar      1 <0>        -0.1150 
     17 C17        18.3073    1.6304   18.1926 C.ar      1 <0>        -0.1150 
     18 C18        16.5057   -5.4408   13.0269 C.3       1 <0>         0.1700 
     19 C19        16.7425   -3.1923   12.6165 C.3       1 <0>         0.1700 
     20 C20        16.5370   -5.1888   15.7787 C.3       1 <0>         0.0650 
     21 C21        18.5856   -5.5991   14.4485 C.3       1 <0>        -0.0500 
     22 C22        19.0055   -3.4766   11.5641 C.3       1 <0>         0.0588 
     23 C23        20.1874   -1.2656   12.0112 C.3       1 <0>         0.0588 
     24 C24        18.0174   -2.7994   16.9620 C.3       1 <0>         0.1400 
     25 C25        17.7071   -0.9345   19.1983 C.ar      1 <0>        -0.1150 
     26 C26        18.8215    0.4886   17.5447 C.ar      1 <0>        -0.1150 
     27 C27        16.0572   -5.0939   17.2242 C.ar      1 <0>        -0.1150 
     28 C28        19.2057   -0.2371    9.1427 C.ar      1 <0>         0.1567 
     29 C29        18.5327   -0.7998   18.0587 C.ar      1 <0>         0.0850 
     30 C30        18.0123   -5.1930   13.0938 C.3       1 <0>        -0.0600 
     31 C31        18.1696   -3.6996   12.8212 C.3       1 <0>        -0.0233 
     32 C32        20.2270   -1.6751   13.5003 C.3       1 <0>        -0.0233 
     33 C33        18.6774   -4.0615   16.3836 C.2       1 <0>         0.5000 
     34 N1         16.0148   -4.3716   12.1689 N.4       1 <0>        -0.2000 
     35 N2         17.9618   -4.8822   15.5732 N.am      1 <0>        -0.1400 
     36 N3         19.2119   -2.0512   11.2229 N.pl3     1 <0>        -0.5376 
     37 O1         19.8549   -4.2919   16.6635 O.2       1 <0>        -0.5000 
     38 O2         17.2687   -0.3441   10.9547 O.2       1 <0>        -0.4680 
     39 O3         17.4978   -2.2504    9.2745 O.2       1 <0>        -0.4680 
     40 O4         19.0263   -1.9251   17.4498 O.3       1 <0>        -0.2850 
     41 S1         18.1120   -1.2376   10.1459 S.o2      1 <0>         0.8327 
     42 H1         16.5726   -2.2587   20.4840 H         1 <0>         0.0600 
     43 H2         17.0373   -2.9669   18.9372 H         1 <0>         0.0600 
     44 H3         18.2459   -2.7555   20.2115 H         1 <0>         0.0600 
     45 H4         19.3579    1.5479   15.7400 H         1 <0>         0.0600 
     46 H5         20.7199    0.7981   16.5760 H         1 <0>         0.0600 
     47 H6         19.5957   -0.1930   15.6359 H         1 <0>         0.0600 
     48 H7         20.0180   -3.8196   13.1492 H         1 <0>         0.0600 
     49 H8         21.6899   -3.2668   13.2090 H         1 <0>         0.0600 
     50 H9         20.7619   -3.4194   14.6944 H         1 <0>         0.0600 
     51 H10        18.0900   -2.0862   13.6925 H         1 <0>         0.0600 
     52 H11        18.8967   -1.7788   15.2279 H         1 <0>         0.0600 
     53 H12        18.5364   -0.4451   14.1435 H         1 <0>         0.0600 
     54 H13        14.8438   -4.9555   20.9368 H         1 <0>         0.1150 
     55 H14        21.5466    1.9370    6.9205 H         1 <0>         0.1150 
     56 H15        16.0516   -6.9606   20.0951 H         1 <0>         0.1150 
     57 H16        14.4159   -3.0344   19.4162 H         1 <0>         0.1150 
     58 H17        19.3272    2.8186    7.6203 H         1 <0>         0.1150 
     59 H18        22.2778   -0.3265    7.6512 H         1 <0>         0.1150 
     60 H19        17.1068    2.3728   19.8276 H         1 <0>         0.1150 
     61 H20        16.8245   -7.0524   17.7427 H         1 <0>         0.1150 
     62 H21        15.1786   -3.1078   17.0719 H         1 <0>         0.1150 
     63 H22        17.8303    1.4316    9.0475 H         1 <0>         0.1150 
     64 H23        20.7874   -1.7191    9.0728 H         1 <0>         0.1150 
     65 H24        16.5701    0.1204   20.7112 H         1 <0>         0.1150 
     66 H25        18.5270    2.6168   17.8107 H         1 <0>         0.1150 
     67 H26        16.0327   -5.4346   14.0089 H         1 <0>         0.0600 
     68 H27        16.3009   -6.4052   12.5620 H         1 <0>         0.0600 
     69 H28        16.3145   -2.7593   13.5206 H         1 <0>         0.0600 
     70 H29        16.7195   -2.4312   11.8366 H         1 <0>         0.0600 
     71 H30        15.9273   -4.5373   15.1504 H         1 <0>         0.0600 
     72 H31        16.3161   -6.1969   15.4248 H         1 <0>         0.0600 
     73 H32        18.4513   -6.6701   14.6021 H         1 <0>         0.0600 
     74 H33        19.6684   -5.4605   14.4571 H         1 <0>         0.0600 
     75 H34        18.5428   -3.9953   10.7249 H         1 <0>         0.0733 
     76 H35        19.9860   -3.9384   11.6725 H         1 <0>         0.0733 
     77 H36        21.1851   -1.3904   11.5907 H         1 <0>         0.0733 
     78 H37        19.9637   -0.2045   11.9046 H         1 <0>         0.0733 
     79 H38        17.4466   -2.3033   16.1763 H         1 <0>         0.0300 
     80 H39        17.3248   -3.0469   17.7641 H         1 <0>         0.0300 
     81 H40        18.5315   -5.7730   12.3308 H         1 <0>         0.0600 
     82 H41        18.6645   -3.1785   13.6407 H         1 <0>         0.0600 
     83 H42        20.9537   -1.0583   14.0284 H         1 <0>         0.0600 
     84 H43        15.0194   -4.2455   12.2853 H         1 <0>         0.3100 
     85 H44        16.1587   -4.5657   11.1883 H         1 <0>         0.3100 
@<TRIPOS>BOND
     1    1   25 1    
     2    1   42 1    
     3    1   43 1    
     4    1   44 1    
     5    2   26 1    
     6    2   45 1    
     7    2   46 1    
     8    2   47 1    
     9    3   32 1    
    10    3   48 1    
    11    3   49 1    
    12    3   50 1    
    13    4   32 1    
    14    4   51 1    
    15    4   52 1    
    16    4   53 1    
    17    5    7 ar   
    18    5    8 ar   
    19    5   54 1    
    20    6    9 ar   
    21    6   10 ar   
    22    6   55 1    
    23    7   12 ar   
    24    7   56 1    
    25    8   13 ar   
    26    8   57 1    
    27    9   14 ar   
    28    9   58 1    
    29   10   15 ar   
    30   10   59 1    
    31   11   16 ar   
    32   11   17 ar   
    33   11   60 1    
    34   12   27 ar   
    35   12   61 1    
    36   13   27 ar   
    37   13   62 1    
    38   14   28 ar   
    39   14   63 1    
    40   15   28 ar   
    41   15   64 1    
    42   16   25 ar   
    43   16   65 1    
    44   17   26 ar   
    45   17   66 1    
    46   18   30 1    
    47   18   34 1    
    48   18   67 1    
    49   18   68 1    
    50   19   31 1    
    51   19   34 1    
    52   19   69 1    
    53   19   70 1    
    54   20   27 1    
    55   20   35 1    
    56   20   71 1    
    57   20   72 1    
    58   21   30 1    
    59   21   35 1    
    60   21   73 1    
    61   21   74 1    
    62   22   31 1    
    63   22   36 1    
    64   22   75 1    
    65   22   76 1    
    66   23   32 1    
    67   23   36 1    
    68   23   77 1    
    69   23   78 1    
    70   24   33 1    
    71   24   40 1    
    72   24   79 1    
    73   24   80 1    
    74   25   29 ar   
    75   26   29 ar   
    76   28   41 1    
    77   29   40 1    
    78   30   31 1    
    79   30   81 1    
    80   31   82 1    
    81   32   83 1    
    82   33   35 am   BACKBONE|DICT|INTERRES
    83   33   37 2    
    84   34   84 1    
    85   34   85 1    
    86   36   41 1    
    87   38   41 2    
    88   39   41 2    
@<TRIPOS>SUBSTRUCTURE
     1 <0>         1 GROUP             0       ****    0 ROOT    
@<TRIPOS>MOLECULE
hivpr-ligand
85   88    1
SMALL
USER_CHARGES


@<TRIPOS>ATOM
      1 C1         25.2344   -1.4806   18.8328 C.3       1 <0>        -0.0650 
      2 C2         21.4434    0.6579   21.4914 C.3       1 <0>        -0.0650 
      3 C3         17.1472   -6.2654   12.2568 C.3       1 <0>        -0.1800 
      4 C4         16.4680   -3.8438   12.0470 C.3       1 <0>        -0.1800 
      5 C5         16.3554   -5.3365   18.5522 C.ar      1 <0>        -0.1150 
      6 C6         17.6035    1.6793   10.7675 C.ar      1 <0>        -0.1150 
      7 C7         17.2942   -5.7081   17.5717 C.ar      1 <0>        -0.1150 
      8 C8         16.4023   -4.0477   19.1156 C.ar      1 <0>        -0.1150 
      9 C9         16.9080    0.4642   10.9287 C.ar      1 <0>        -0.1150 
     10 C10        18.9612    1.6731   10.3892 C.ar      1 <0>        -0.1150 
     11 C11        24.9894    1.8521   20.7001 C.ar      1 <0>        -0.1150 
     12 C12        18.2769   -4.7905   17.1530 C.ar      1 <0>        -0.1150 
     13 C13        17.3845   -3.1294   18.6970 C.ar      1 <0>        -0.1150 
     14 C14        17.5684   -0.7602   10.7075 C.ar      1 <0>        -0.1150 
     15 C15        19.6259    0.4510   10.1666 C.ar      1 <0>        -0.1150 
     16 C16        25.4928    0.7849   19.9339 C.ar      1 <0>        -0.1150 
     17 C17        23.6738    1.8029   21.1963 C.ar      1 <0>        -0.1150 
     18 C18        22.9138   -3.3653   14.4983 C.3       1 <0>         0.1700 
     19 C19        21.9612   -4.2581   12.6073 C.3       1 <0>         0.1700 
     20 C20        19.3984   -2.5232   17.2181 C.3       1 <0>         0.0650 
     21 C21        20.9828   -3.9866   16.0006 C.3       1 <0>        -0.0500 
     22 C22        19.9273   -2.7928   12.7661 C.3       1 <0>         0.0588 
     23 C23        18.8062   -4.5854   11.3466 C.3       1 <0>         0.0588 
     24 C24        21.9659   -1.4183   18.5689 C.3       1 <0>         0.1400 
     25 C25        24.6797   -0.3326   19.6543 C.ar      1 <0>        -0.1150 
     26 C26        22.8518    0.6899   20.9250 C.ar      1 <0>        -0.1150 
     27 C27        18.3265   -3.4933   17.7064 C.ar      1 <0>        -0.1150 
     28 C28        18.9238   -0.7620   10.3213 C.ar      1 <0>         0.1567 
     29 C29        23.3519   -0.3765   20.1374 C.ar      1 <0>         0.0850 
     30 C30        21.4080   -3.2501   14.7336 C.3       1 <0>        -0.0600 
     31 C31        20.7754   -3.8432   13.4776 C.3       1 <0>        -0.0233 
     32 C32        17.6316   -4.8101   12.3245 C.3       1 <0>        -0.0233 
     33 C33        21.7184   -2.8515   18.0713 C.2       1 <0>         0.5000 
     34 N1         23.0391   -3.3835   13.0476 N.4       1 <0>        -0.2000 
     35 N2         20.7575   -3.0828   17.1410 N.am      1 <0>        -0.1400 
     36 N3         19.3970   -3.2331   11.4562 N.pl3     1 <0>        -0.5376 
     37 O1         22.4139   -3.7615   18.5255 O.2       1 <0>        -0.5000 
     38 O2         19.0827   -2.9896    8.8863 O.2       1 <0>        -0.4680 
     39 O3         21.1962   -2.0685    9.9794 O.2       1 <0>        -0.4680 
     40 O4         22.5697   -1.4668   19.8547 O.3       1 <0>        -0.2850 
     41 S1         19.7480   -2.3210   10.0152 S.o2      1 <0>         0.8327 
     42 H1         26.3145   -1.3956   18.7102 H         1 <0>         0.0600 
     43 H2         25.0257   -2.4339   19.3192 H         1 <0>         0.0600 
     44 H3         24.7783   -1.4912   17.8430 H         1 <0>         0.0600 
     45 H4         21.3998    1.1794   22.4479 H         1 <0>         0.0600 
     46 H5         20.7506    1.1471   20.8067 H         1 <0>         0.0600 
     47 H6         21.1022   -0.3643   21.6563 H         1 <0>         0.0600 
     48 H7         16.7773   -6.5149   11.2616 H         1 <0>         0.0600 
     49 H8         17.9517   -6.9610   12.4970 H         1 <0>         0.0600 
     50 H9         16.3379   -6.4443   12.9655 H         1 <0>         0.0600 
     51 H10        16.0819   -3.9690   11.0348 H         1 <0>         0.0600 
     52 H11        15.6432   -4.0108   12.7402 H         1 <0>         0.0600 
     53 H12        16.7769   -2.8038   12.1550 H         1 <0>         0.0600 
     54 H13        15.6013   -6.0403   18.8732 H         1 <0>         0.1150 
     55 H14        17.0974    2.6174   10.9447 H         1 <0>         0.1150 
     56 H15        17.2603   -6.6979   17.1402 H         1 <0>         0.1150 
     57 H16        15.6831   -3.7630   19.8697 H         1 <0>         0.1150 
     58 H17        15.8702    0.4714   11.2290 H         1 <0>         0.1150 
     59 H18        19.4944    2.6060   10.2766 H         1 <0>         0.1150 
     60 H19        25.6153    2.7063   20.9131 H         1 <0>         0.1150 
     61 H20        18.9909   -5.0873   16.3984 H         1 <0>         0.1150 
     62 H21        17.3992   -2.1470   19.1443 H         1 <0>         0.1150 
     63 H22        17.0387   -1.6925   10.8367 H         1 <0>         0.1150 
     64 H23        20.6670    0.4499    9.8791 H         1 <0>         0.1150 
     65 H24        26.5068    0.8284   19.5637 H         1 <0>         0.1150 
     66 H25        23.2988    2.6229   21.7914 H         1 <0>         0.1150 
     67 H26        23.3473   -4.2508   14.9630 H         1 <0>         0.0600 
     68 H27        23.4273   -2.4910   14.8982 H         1 <0>         0.0600 
     69 H28        22.2140   -5.3131   12.7131 H         1 <0>         0.0600 
     70 H29        21.7438   -4.0691   11.5561 H         1 <0>         0.0600 
     71 H30        19.4025   -1.6365   17.8544 H         1 <0>         0.0600 
     72 H31        19.0881   -2.1568   16.2385 H         1 <0>         0.0600 
     73 H32        20.0656   -4.5460   15.8144 H         1 <0>         0.0600 
     74 H33        21.7171   -4.7529   16.2564 H         1 <0>         0.0600 
     75 H34        20.5098   -1.8802   12.6425 H         1 <0>         0.0733 
     76 H35        19.0810   -2.5028   13.3875 H         1 <0>         0.0733 
     77 H36        18.4474   -4.7485   10.3305 H         1 <0>         0.0733 
     78 H37        19.5864   -5.3312   11.4968 H         1 <0>         0.0733 
     79 H38        22.6274   -0.9069   17.8689 H         1 <0>         0.0300 
     80 H39        21.0387   -0.8506   18.6183 H         1 <0>         0.0300 
     81 H40        21.1155   -2.2063   14.8471 H         1 <0>         0.0600 
     82 H41        20.1280   -4.6913   13.7005 H         1 <0>         0.0600 
     83 H42        17.9715   -4.6439   13.3464 H         1 <0>         0.0600 
     84 H43        23.9374   -3.7516   12.7689 H         1 <0>         0.3100 
     85 H44        22.9778   -2.4603   12.6425 H         1 <0>         0.3100 
@<TRIPOS>BOND
     1    1   25 1    
     2    1   42 1    
     3    1   43 1    
     4    1   44 1    
     5    2   26 1    
     6    2   45 1    
     7    2   46 1    
     8    2   47 1    
     9    3   32 1    
    10    3   48 1    
    11    3   49 1    
    12    3   50 1    
    13    4   32 1    
    14    4   51 1    
    15    4   52 1    
    16    4   53 1    
    17    5    7 ar   
    18    5    8 ar   
    19    5   54 1    
    20    6    9 ar   
    21    6   10 ar   
    22    6   55 1    
    23    7   12 ar   
    24    7   56 1    
    25    8   13 ar   
    26    8   57 1    
    27    9   14 ar   
    28    9   58 1    
    29   10   15 ar   
    30   10   59 1    
    31   11   16 ar   
    32   11   17 ar   
    33   11   60 1    
    34   12   27 ar   
    35   12   61 1    
    36   13   27 ar   
    37   13   62 1    
    38   14   28 ar   
    39   14   63 1    
    40   15   28 ar   
    41   15   64 1    
    42   16   25 ar   
    43   16   65 1    
    44   17   26 ar   
    45   17   66 1    
    46   18   30 1    
    47   18   34 1    
    48   18   67 1    
    49   18   68 1    
    50   19   31 1    
    51   19   34 1    
    52   19   69 1    
    53   19   70 1    
    54   20   27 1    
    55   20   35 1    
    56   20   71 1    
    57   20   72 1    
    58   21   30 1    
    59   21   35 1    
    60   21   73 1    
    61   21   74 1    
    62   22   31 1    
    63   22   36 1    
    64   22   75 1    
    65   22   76 1    
    66   23   32 1    
    67   23   36 1    
    68   23   77 1    
    69   23   78 1    
    70   24   33 1    
    71   24   40 1    
    72   24   79 1    
    73   24   80 1    
    74   25   29 ar   
    75   26   29 ar   
    76   28   41 1    
    77   29   40 1    
    78   30   31 1    
    79   30   81 1    
    80   31   82 1    
    81   32   83 1    
    82   33   35 am   BACKBONE|DICT|INTERRES
    83   33   37 2    
    84   34   84 1    
    85   34   85 1    
    86   36   41 1    
    87   38   41 2    
    88   39   41 2    
@<TRIPOS>SUBSTRUCTURE
     1 <0>         1 GROUP             0       ****    0 ROOT    
@<TRIPOS>MOLECULE
hivpr-ligand
85   88    1
SMALL
USER_CHARGES


@<TRIPOS>ATOM
      1 C1         23.7046   -0.9557   20.9244 C.3       1 <0>        -0.0650 
      2 C2         20.1544    1.4261   18.1576 C.3       1 <0>        -0.0650 
      3 C3         16.1226   -4.7508   12.5755 C.3       1 <0>        -0.1800 
      4 C4         16.4098   -2.3999   11.7751 C.3       1 <0>        -0.1800 
      5 C5         15.9534   -4.7599   18.9298 C.ar      1 <0>        -0.1150 
      6 C6         18.5846    1.7896    9.4326 C.ar      1 <0>        -0.1150 
      7 C7         17.0291   -5.3809   18.2698 C.ar      1 <0>        -0.1150 
      8 C8         15.9212   -3.3582   19.0504 C.ar      1 <0>        -0.1150 
      9 C9         19.9132    1.4134    9.7049 C.ar      1 <0>        -0.1150 
     10 C10        17.6096    0.8010    9.1855 C.ar      1 <0>        -0.1150 
     11 C11        23.1398    2.7488   20.1519 C.ar      1 <0>        -0.1150 
     12 C12        18.0717   -4.6019   17.7249 C.ar      1 <0>        -0.1150 
     13 C13        16.9626   -2.5812   18.5020 C.ar      1 <0>        -0.1150 
     14 C14        20.2704    0.0501    9.7254 C.ar      1 <0>        -0.1150 
     15 C15        17.9563   -0.5621    9.2171 C.ar      1 <0>        -0.1150 
     16 C16        23.6838    1.5634   20.6792 C.ar      1 <0>        -0.1150 
     17 C17        22.0001    2.6943   19.3303 C.ar      1 <0>        -0.1150 
     18 C18        22.6849   -3.3473   14.6020 C.3       1 <0>         0.1700 
     19 C19        22.0995   -4.0818   12.4607 C.3       1 <0>         0.1700 
     20 C20        19.1366   -2.2920   17.2375 C.3       1 <0>         0.0650 
     21 C21        20.3556   -3.7737   15.6530 C.3       1 <0>        -0.0500 
     22 C22        20.0233   -2.6071   12.2645 C.3       1 <0>         0.0588 
     23 C23        18.2197   -4.1378   11.3178 C.3       1 <0>         0.0588 
     24 C24        22.0095   -1.4292   17.9491 C.3       1 <0>         0.1400 
     25 C25        23.0995    0.3178   20.3671 C.ar      1 <0>        -0.1150 
     26 C26        21.3980    1.4540   19.0245 C.ar      1 <0>        -0.1150 
     27 C27        18.0478   -3.1893   17.8342 C.ar      1 <0>        -0.1150 
     28 C28        19.2886   -0.9330    9.4812 C.ar      1 <0>         0.1567 
     29 C29        21.9648    0.2573   19.5256 C.ar      1 <0>         0.0850 
     30 C30        21.1642   -3.1263   14.5011 C.3       1 <0>        -0.0600 
     31 C31        20.7714   -3.6656   13.1075 C.3       1 <0>        -0.0233 
     32 C32        17.1417   -3.6396   12.3053 C.3       1 <0>        -0.0233 
     33 C33        21.5302   -2.8414   17.6001 C.2       1 <0>         0.5000 
     34 N1         23.1494   -3.3838   13.2165 N.4       1 <0>        -0.2000 
     35 N2         20.3932   -2.9666   16.8812 N.am      1 <0>        -0.1400 
     36 N3         19.3340   -3.1860   11.0917 N.pl3     1 <0>        -0.5376 
     37 O1         22.3063   -3.7833   17.7728 O.2       1 <0>        -0.5000 
     38 O2         18.8993   -3.3854    8.5249 O.2       1 <0>        -0.4680 
     39 O3         21.2093   -2.7375    9.3543 O.2       1 <0>        -0.4680 
     40 O4         21.4472   -0.9654   19.1677 O.3       1 <0>        -0.2850 
     41 S1         19.7497   -2.6620    9.4846 S.o2      1 <0>         0.8327 
     42 H1         24.4142   -0.7424   21.7250 H         1 <0>         0.0600 
     43 H2         22.9238   -1.6020   21.3274 H         1 <0>         0.0600 
     44 H3         24.2293   -1.4948   20.1351 H         1 <0>         0.0600 
     45 H4         19.6792    2.4067   18.1209 H         1 <0>         0.0600 
     46 H5         20.4019    1.1307   17.1377 H         1 <0>         0.0600 
     47 H6         19.4235    0.7252   18.5607 H         1 <0>         0.0600 
     48 H7         15.6100   -5.0069   11.6497 H         1 <0>         0.0600 
     49 H8         16.5985   -5.6546   12.9602 H         1 <0>         0.0600 
     50 H9         15.3664   -4.4390   13.2979 H         1 <0>         0.0600 
     51 H10        15.9751   -2.5907   10.7933 H         1 <0>         0.0600 
     52 H11        15.5903   -2.1365   12.4420 H         1 <0>         0.0600 
     53 H12        17.0729   -1.5387   11.6934 H         1 <0>         0.0600 
     54 H13        15.1575   -5.3562   19.3523 H         1 <0>         0.1150 
     55 H14        18.3220    2.8375    9.4126 H         1 <0>         0.1150 
     56 H15        17.0557   -6.4587   18.1799 H         1 <0>         0.1150 
     57 H16        15.0990   -2.8758   19.5592 H         1 <0>         0.1150 
     58 H17        20.6615    2.1680    9.8994 H         1 <0>         0.1150 
     59 H18        16.5927    1.0902    8.9629 H         1 <0>         0.1150 
     60 H19        23.6031    3.6974   20.3796 H         1 <0>         0.1150 
     61 H20        18.8857   -5.1136   17.2389 H         1 <0>         0.1150 
     62 H21        16.9212   -1.5055   18.5954 H         1 <0>         0.1150 
     63 H22        21.2925   -0.2313    9.9352 H         1 <0>         0.1150 
     64 H23        17.2104   -1.3195    9.0309 H         1 <0>         0.1150 
     65 H24        24.5554    1.6111   21.3168 H         1 <0>         0.1150 
     66 H25        21.5890    3.6072   18.9259 H         1 <0>         0.1150 
     67 H26        22.9195   -4.3041   15.0731 H         1 <0>         0.0600 
     68 H27        23.1924   -2.5589   15.1581 H         1 <0>         0.0600 
     69 H28        22.2459   -5.1553   12.5879 H         1 <0>         0.0600 
     70 H29        22.1356   -3.8752   11.3939 H         1 <0>         0.0600 
     71 H30        19.3169   -1.4897   17.9472 H         1 <0>         0.0600 
     72 H31        18.7299   -1.8075   16.3485 H         1 <0>         0.0600 
     73 H32        19.3148   -3.8978   15.3471 H         1 <0>         0.0600 
     74 H33        20.7197   -4.7824   15.8510 H         1 <0>         0.0600 
     75 H34        20.7284   -1.8422   11.9346 H         1 <0>         0.0733 
     76 H35        19.2975   -2.0675   12.8724 H         1 <0>         0.0733 
     77 H36        17.7346   -4.3826   10.3737 H         1 <0>         0.0733 
     78 H37        18.6380   -5.0791   11.6737 H         1 <0>         0.0733 
     79 H38        23.0992   -1.4435   18.0114 H         1 <0>         0.0300 
     80 H39        21.7583   -0.7583   17.1282 H         1 <0>         0.0300 
     81 H40        20.9872   -2.0492   14.5127 H         1 <0>         0.0600 
     82 H41        20.1499   -4.5527   13.2259 H         1 <0>         0.0600 
     83 H42        17.5946   -3.3967   13.2660 H         1 <0>         0.0600 
     84 H43        24.0549   -3.8196   13.1283 H         1 <0>         0.3100 
     85 H44        23.2091   -2.4071   12.9291 H         1 <0>         0.3100 
@<TRIPOS>BOND
     1    1   25 1    
     2    1   42 1    
     3    1   43 1    
     4    1   44 1    
     5    2   26 1    
     6    2   45 1    
     7    2   46 1    
     8    2   47 1    
     9    3   32 1    
    10    3   48 1    
    11    3   49 1    
    12    3   50 1    
    13    4   32 1    
    14    4   51 1    
    15    4   52 1    
    16    4   53 1    
    17    5    7 ar   
    18    5    8 ar   
    19    5   54 1    
    20    6    9 ar   
    21    6   10 ar   
    22    6   55 1    
    23    7   12 ar   
    24    7   56 1    
    25    8   13 ar   
    26    8   57 1    
    27    9   14 ar   
    28    9   58 1    
    29   10   15 ar   
    30   10   59 1    
    31   11   16 ar   
    32   11   17 ar   
    33   11   60 1    
    34   12   27 ar   
    35   12   61 1    
    36   13   27 ar   
    37   13   62 1    
    38   14   28 ar   
    39   14   63 1    
    40   15   28 ar   
    41   15   64 1    
    42   16   25 ar   
    43   16   65 1    
    44   17   26 ar   
    45   17   66 1    
    46   18   30 1    
    47   18   34 1    
    48   18   67 1    
    49   18   68 1    
    50   19   31 1    
    51   19   34 1    
    52   19   69 1    
    53   19   70 1    
    54   20   27 1    
    55   20   35 1    
    56   20   71 1    
    57   20   72 1    
    58   21   30 1    
    59   21   35 1    
    60   21   73 1    
    61   21   74 1    
    62   22   31 1    
    63   22   36 1    
    64   22   75 1    
    65   22   76 1    
    66   23   32 1    
    67   23   36 1    
    68   23   77 1    
    69   23   78 1    
    70   24   33 1    
    71   24   40 1    
    72   24   79 1    
    73   24   80 1    
    74   25   29 ar   
    75   26   29 ar   
    76   28   41 1    
    77   29   40 1    
    78   30   31 1    
    79   30   81 1    
    80   31   82 1    
    81   32   83 1    
    82   33   35 am   BACKBONE|DICT|INTERRES
    83   33   37 2    
    84   34   84 1    
    85   34   85 1    
    86   36   41 1    
    87   38   41 2    
    88   39   41 2    
@<TRIPOS>SUBSTRUCTURE
     1 <0>         1 GROUP             0       ****    0 ROOT    
@<TRIPOS>MOLECULE
hivpr-ligand
85   88    1
SMALL
USER_CHARGES


@<TRIPOS>ATOM
      1 C1         24.9937   -1.6494   18.8430 C.3       1 <0>        -0.0650 
      2 C2         21.0878    0.4149   21.4000 C.3       1 <0>        -0.0650 
      3 C3         18.1553   -5.8154   10.8313 C.3       1 <0>        -0.1800 
      4 C4         16.2736   -5.1947   12.3812 C.3       1 <0>        -0.1800 
      5 C5         15.8214   -4.2461   19.5104 C.ar      1 <0>        -0.1150 
      6 C6         18.6606    1.8169    9.5023 C.ar      1 <0>        -0.1150 
      7 C7         16.6658   -4.9517   18.6313 C.ar      1 <0>        -0.1150 
      8 C8         15.9866   -2.8575   19.6760 C.ar      1 <0>        -0.1150 
      9 C9         17.6465    0.8408    9.4280 C.ar      1 <0>        -0.1150 
     10 C10        20.0072    1.4296    9.6500 C.ar      1 <0>        -0.1150 
     11 C11        24.4432    1.8528   20.2601 C.ar      1 <0>        -0.1150 
     12 C12        17.6739   -4.2696   17.9186 C.ar      1 <0>        -0.1150 
     13 C13        16.9960   -2.1761   18.9651 C.ar      1 <0>        -0.1150 
     14 C14        17.9822   -0.5264    9.4954 C.ar      1 <0>        -0.1150 
     15 C15        20.3449    0.0646    9.7255 C.ar      1 <0>        -0.1150 
     16 C16        25.0320    0.7483   19.6198 C.ar      1 <0>        -0.1150 
     17 C17        23.1550    1.7358   20.8141 C.ar      1 <0>        -0.1150 
     18 C18        22.6619   -3.3457   14.9687 C.3       1 <0>         0.1700 
     19 C19        22.1687   -3.9628   12.7562 C.3       1 <0>         0.1700 
     20 C20        18.9017   -2.0970   17.2907 C.3       1 <0>         0.0650 
     21 C21        20.2578   -3.6179   15.8807 C.3       1 <0>        -0.0500 
     22 C22        20.0831   -2.4652   12.5173 C.3       1 <0>         0.0588 
     23 C23        17.9096   -3.4091   11.6886 C.3       1 <0>         0.0588 
     24 C24        21.1369   -1.7544   19.1652 C.3       1 <0>         0.1400 
     25 C25        24.3288   -0.4691   19.5198 C.ar      1 <0>        -0.1150 
     26 C26        22.4408    0.5226   20.7197 C.ar      1 <0>        -0.1150 
     27 C27        17.8485   -2.8739   18.0812 C.ar      1 <0>        -0.1150 
     28 C28        19.3288   -0.9090    9.6514 C.ar      1 <0>         0.1567 
     29 C29        23.0169   -0.5821   20.0404 C.ar      1 <0>         0.0850 
     30 C30        21.1736   -3.0144   14.7872 C.3       1 <0>        -0.0600 
     31 C31        20.8275   -3.5276   13.3653 C.3       1 <0>        -0.0233 
     32 C32        17.7285   -4.9103   11.9979 C.3       1 <0>        -0.0233 
     33 C33        21.1806   -2.7936   18.0299 C.2       1 <0>         0.5000 
     34 N1         23.2095   -3.3835   13.6110 N.4       1 <0>        -0.2000 
     35 N2         20.1832   -2.8052   17.1092 N.am      1 <0>        -0.1400 
     36 N3         19.3148   -3.0513   11.3932 N.pl3     1 <0>        -0.5376 
     37 O1         22.1404   -3.5653   17.9646 O.2       1 <0>        -0.5000 
     38 O2         18.8749   -3.3943    8.8366 O.2       1 <0>        -0.4680 
     39 O3         21.2094   -2.7722    9.6286 O.2       1 <0>        -0.4680 
     40 O4         22.3558   -1.7833   19.9080 O.3       1 <0>        -0.2850 
     41 S1         19.7518   -2.6464    9.7538 S.o2      1 <0>         0.8327 
     42 H1         26.0790   -1.5724   18.9104 H         1 <0>         0.0600 
     43 H2         24.7039   -2.5835   19.3185 H         1 <0>         0.0600 
     44 H3         24.7040   -1.6930   17.7939 H         1 <0>         0.0600 
     45 H4         20.9916    1.1524   22.1967 H         1 <0>         0.0600 
     46 H5         20.2814    0.5769   20.6855 H         1 <0>         0.0600 
     47 H6         20.9643   -0.5688   21.8535 H         1 <0>         0.0600 
     48 H7         17.5759   -5.5983    9.9334 H         1 <0>         0.0600 
     49 H8         19.2116   -5.6848   10.5904 H         1 <0>         0.0600 
     50 H9         18.0026   -6.8668   11.0757 H         1 <0>         0.0600 
     51 H10        15.6098   -4.9747   11.5450 H         1 <0>         0.0600 
     52 H11        16.1308   -6.2412   12.6545 H         1 <0>         0.0600 
     53 H12        15.9553   -4.5852   13.2289 H         1 <0>         0.0600 
     54 H13        15.0468   -4.7711   20.0535 H         1 <0>         0.1150 
     55 H14        18.4095    2.8664    9.4517 H         1 <0>         0.1150 
     56 H15        16.5417   -6.0173   18.5021 H         1 <0>         0.1150 
     57 H16        15.3350   -2.3132   20.3445 H         1 <0>         0.1150 
     58 H17        16.6143    1.1425    9.3240 H         1 <0>         0.1150 
     59 H18        20.7803    2.1805    9.7107 H         1 <0>         0.1150 
     60 H19        24.9882    2.7822   20.3434 H         1 <0>         0.1150 
     61 H20        18.2995   -4.8370   17.2461 H         1 <0>         0.1150 
     62 H21        17.1038   -1.1095   19.0987 H         1 <0>         0.1150 
     63 H22        17.2095   -1.2772    9.4364 H         1 <0>         0.1150 
     64 H23        21.3773   -0.2235    9.8547 H         1 <0>         0.1150 
     65 H24        26.0287    0.8394   19.2104 H         1 <0>         0.1150 
     66 H25        22.7249    2.5785   21.3335 H         1 <0>         0.1150 
     67 H26        22.7943   -4.3291   15.4213 H         1 <0>         0.0600 
     68 H27        23.1871   -2.6161   15.5862 H         1 <0>         0.0600 
     69 H28        22.2571   -5.0489   12.7892 H         1 <0>         0.0600 
     70 H29        22.2962   -3.6563   11.7250 H         1 <0>         0.0600 
     71 H30        19.0461   -1.1184   17.7465 H         1 <0>         0.0600 
     72 H31        18.4717   -1.8596   16.3165 H         1 <0>         0.0600 
     73 H32        19.2558   -3.7288   15.4638 H         1 <0>         0.0600 
     74 H33        20.5683   -4.6355   16.1247 H         1 <0>         0.0600 
     75 H34        20.7973   -1.7325   12.1348 H         1 <0>         0.0733 
     76 H35        19.4056   -1.8893   13.1490 H         1 <0>         0.0733 
     77 H36        17.5348   -2.8125   12.5217 H         1 <0>         0.0733 
     78 H37        17.2776   -3.1416   10.8419 H         1 <0>         0.0733 
     79 H38        20.9710   -0.7668   18.7314 H         1 <0>         0.0300 
     80 H39        20.3049   -1.9778   19.8352 H         1 <0>         0.0300 
     81 H40        21.0736   -1.9270   14.7940 H         1 <0>         0.0600 
     82 H41        20.2144   -4.4186   13.4573 H         1 <0>         0.0600 
     83 H42        18.3273   -5.1727   12.8658 H         1 <0>         0.0600 
     84 H43        24.0862   -3.8812   13.5602 H         1 <0>         0.3100 
     85 H44        23.3469   -2.4064   13.3406 H         1 <0>         0.3100 
@<TRIPOS>BOND
     1    1   25 1    
     2    1   42 1    
     3    1   43 1    
     4    1   44 1    
     5    2   26 1    
     6    2   45 1    
     7    2   46 1    
     8    2   47 1    
     9    3   32 1    
    10    3   48 1    
    11    3   49 1    
    12    3   50 1    
    13    4   32 1    
    14    4   51 1    
    15    4   52 1    
    16    4   53 1    
    17    5    7 ar   
    18    5    8 ar   
    19    5   54 1    
    20    6    9 ar   
    21    6   10 ar   
    22    6   55 1    
    23    7   12 ar   
    24    7   56 1    
    25    8   13 ar   
    26    8   57 1    
    27    9   14 ar   
    28    9   58 1    
    29   10   15 ar   
    30   10   59 1    
    31   11   16 ar   
    32   11   17 ar   
    33   11   60 1    
    34   12   27 ar   
    35   12   61 1    
    36   13   27 ar   
    37   13   62 1    
    38   14   28 ar   
    39   14   63 1    
    40   15   28 ar   
    41   15   64 1    
    42   16   25 ar   
    43   16   65 1    
    44   17   26 ar   
    45   17   66 1    
    46   18   30 1    
    47   18   34 1    
    48   18   67 1    
    49   18   68 1    
    50   19   31 1    
    51   19   34 1    
    52   19   69 1    
    53   19   70 1    
    54   20   27 1    
    55   20   35 1    
    56   20   71 1    
    57   20   72 1    
    58   21   30 1    
    59   21   35 1    
    60   21   73 1    
    61   21   74 1    
    62   22   31 1    
    63   22   36 1    
    64   22   75 1    
    65   22   76 1    
    66   23   32 1    
    67   23   36 1    
    68   23   77 1    
    69   23   78 1    
    70   24   33 1    
    71   24   40 1    
    72   24   79 1    
    73   24   80 1    
    74   25   29 ar   
    75   26   29 ar   
    76   28   41 1    
    77   29   40 1    
    78   30   31 1    
    79   30   81 1    
    80   31   82 1    
    81   32   83 1    
    82   33   35 am   BACKBONE|DICT|INTERRES
    83   33   37 2    
    84   34   84 1    
    85   34   85 1    
    86   36   41 1    
    87   38   41 2    
    88   39   41 2    
@<TRIPOS>SUBSTRUCTURE
     1 <0>         1 GROUP             0       ****    0 ROOT    
@<TRIPOS>MOLECULE
hivpr-ligand
85   88    1
SMALL
USER_CHARGES


@<TRIPOS>ATOM
      1 C1         24.4593   -1.6444   18.5322 C.3       1 <0>        -0.0650 
      2 C2         20.7059   -0.1966   21.6774 C.3       1 <0>        -0.0650 
      3 C3         16.6155   -3.4855   10.7743 C.3       1 <0>        -0.1800 
      4 C4         17.3772   -5.6375    9.6597 C.3       1 <0>        -0.1800 
      5 C5         15.6992   -5.0576   19.3402 C.ar      1 <0>        -0.1150 
      6 C6         18.0338    2.2165   11.3455 C.ar      1 <0>        -0.1150 
      7 C7         16.6331   -5.7228   18.5231 C.ar      1 <0>        -0.1150 
      8 C8         15.7550   -3.6565   19.4680 C.ar      1 <0>        -0.1150 
      9 C9         17.7900    1.0623   12.1032 C.ar      1 <0>        -0.1150 
     10 C10        18.8056    2.1402   10.1679 C.ar      1 <0>        -0.1150 
     11 C11        23.6907    1.6988   20.2155 C.ar      1 <0>        -0.1150 
     12 C12        17.6182   -4.9889   17.8325 C.ar      1 <0>        -0.1150 
     13 C13        16.7423   -2.9247   18.7795 C.ar      1 <0>        -0.1150 
     14 C14        18.3257   -0.1687   11.6977 C.ar      1 <0>        -0.1150 
     15 C15        19.3859    0.9191    9.7846 C.ar      1 <0>        -0.1150 
     16 C16        24.3125    0.7026   19.4412 C.ar      1 <0>        -0.1150 
     17 C17        22.5133    1.4004   20.9258 C.ar      1 <0>        -0.1150 
     18 C18        22.6754   -3.6351   14.9661 C.3       1 <0>         0.1700 
     19 C19        22.2323   -3.9124   12.6706 C.3       1 <0>         0.1700 
     20 C20        18.7065   -2.7499   17.1835 C.3       1 <0>         0.0650 
     21 C21        20.2805   -4.1425   15.8588 C.3       1 <0>        -0.0500 
     22 C22        19.9387   -2.7302   12.7199 C.3       1 <0>         0.0588 
     23 C23        19.0672   -4.2456   10.8932 C.3       1 <0>         0.0588 
     24 C24        20.8063   -2.2230   19.1906 C.3       1 <0>         0.1400 
     25 C25        23.7560   -0.5912   19.3660 C.ar      1 <0>        -0.1150 
     26 C26        21.9453    0.1105   20.8576 C.ar      1 <0>        -0.1150 
     27 C27        17.6835   -3.5808   17.9556 C.ar      1 <0>        -0.1150 
     28 C28        19.1629   -0.2322   10.5623 C.ar      1 <0>         0.1567 
     29 C29        22.5540   -0.8852   20.0554 C.ar      1 <0>         0.0850 
     30 C30        21.1666   -3.4100   14.8207 C.3       1 <0>        -0.0600 
     31 C31        20.8619   -3.7952   13.3527 C.3       1 <0>        -0.0233 
     32 C32        17.7700   -4.2047   10.0533 C.3       1 <0>        -0.0233 
     33 C33        21.0229   -3.1886   18.0145 C.2       1 <0>         0.5000 
     34 N1         23.2097   -3.3835   13.6263 N.4       1 <0>        -0.2000 
     35 N2         20.0506   -3.3458   17.0798 N.am      1 <0>        -0.1400 
     36 N3         19.5950   -2.9215   11.2917 N.pl3     1 <0>        -0.5376 
     37 O1         22.0998   -3.7835   17.9353 O.2       1 <0>        -0.5000 
     38 O2         19.6591   -2.1255    8.7792 O.2       1 <0>        -0.4680 
     39 O3         21.4980   -1.3861   10.3607 O.2       1 <0>        -0.4680 
     40 O4         22.0036   -2.1411   19.9647 O.3       1 <0>        -0.2850 
     41 S1         20.0840   -1.7056   10.1242 S.o2      1 <0>         0.8327 
     42 H1         25.5348   -1.4680   18.5252 H         1 <0>         0.0600 
     43 H2         24.2964   -2.6467   18.9255 H         1 <0>         0.0600 
     44 H3         24.0992   -1.6103   17.5037 H         1 <0>         0.0600 
     45 H4         20.6078    0.5007   22.5088 H         1 <0>         0.0600 
     46 H5         19.8106   -0.1193   21.0589 H         1 <0>         0.0600 
     47 H6         20.7569   -1.2011   22.0991 H         1 <0>         0.0600 
     48 H7         16.3072   -4.0160   11.6769 H         1 <0>         0.0600 
     49 H8         16.8960   -2.4754   11.0632 H         1 <0>         0.0600 
     50 H9         15.7423   -3.3835   10.1290 H         1 <0>         0.0600 
     51 H10        17.0035   -6.2009   10.5166 H         1 <0>         0.0600 
     52 H11        16.6040   -5.6393    8.8941 H         1 <0>         0.0600 
     53 H12        18.2283   -6.1819    9.2506 H         1 <0>         0.0600 
     54 H13        14.9383   -5.6194   19.8637 H         1 <0>         0.1150 
     55 H14        17.6242    3.1540   11.6843 H         1 <0>         0.1150 
     56 H15        16.5895   -6.7967   18.4191 H         1 <0>         0.1150 
     57 H16        15.0364   -3.1397   20.0880 H         1 <0>         0.1150 
     58 H17        17.2094    1.1236   13.0102 H         1 <0>         0.1150 
     59 H18        18.9809    3.0169    9.5700 H         1 <0>         0.1150 
     60 H19        24.1256    2.6863   20.2748 H         1 <0>         0.1150 
     61 H20        18.3159   -5.5236   17.2050 H         1 <0>         0.1150 
     62 H21        16.7663   -1.8491   18.8791 H         1 <0>         0.1150 
     63 H22        18.1100   -1.0305   12.3012 H         1 <0>         0.1150 
     64 H23        20.0264    0.8737    8.9161 H         1 <0>         0.1150 
     65 H24        25.2247    0.9346   18.9089 H         1 <0>         0.1150 
     66 H25        22.0570    2.1608   21.5403 H         1 <0>         0.1150 
     67 H26        22.8997   -4.6619   15.2572 H         1 <0>         0.0600 
     68 H27        23.1333   -2.9619   15.6898 H         1 <0>         0.0600 
     69 H28        22.4621   -4.9596   12.4751 H         1 <0>         0.0600 
     70 H29        22.2855   -3.3846   11.7250 H         1 <0>         0.0600 
     71 H30        18.7539   -1.7467   17.6051 H         1 <0>         0.0600 
     72 H31        18.3022   -2.5798   16.1836 H         1 <0>         0.0600 
     73 H32        19.3176   -4.3743   15.3980 H         1 <0>         0.0600 
     74 H33        20.7031   -5.1154   16.1155 H         1 <0>         0.0600 
     75 H34        20.3903   -1.7429   12.8344 H         1 <0>         0.0733 
     76 H35        19.0122   -2.7119   13.2954 H         1 <0>         0.0733 
     77 H36        19.8525   -4.7695   10.3469 H         1 <0>         0.0733 
     78 H37        18.8547   -4.8412   11.7812 H         1 <0>         0.0733 
     79 H38        20.5168   -1.2436   18.8081 H         1 <0>         0.0300 
     80 H39        19.9965   -2.5863   19.8221 H         1 <0>         0.0300 
     81 H40        20.9986   -2.3360   14.9323 H         1 <0>         0.0600 
     82 H41        20.3881   -4.7773   13.3308 H         1 <0>         0.0600 
     83 H42        17.9456   -3.6796    9.1186 H         1 <0>         0.0600 
     84 H43        24.1341   -3.7669   13.4977 H         1 <0>         0.3100 
     85 H44        23.2466   -2.3671   13.5124 H         1 <0>         0.3100 
@<TRIPOS>BOND
     1    1   25 1    
     2    1   42 1    
     3    1   43 1    
     4    1   44 1    
     5    2   26 1    
     6    2   45 1    
     7    2   46 1    
     8    2   47 1    
     9    3   32 1    
    10    3   48 1    
    11    3   49 1    
    12    3   50 1    
    13    4   32 1    
    14    4   51 1    
    15    4   52 1    
    16    4   53 1    
    17    5    7 ar   
    18    5    8 ar   
    19    5   54 1    
    20    6    9 ar   
    21    6   10 ar   
    22    6   55 1    
    23    7   12 ar   
    24    7   56 1    
    25    8   13 ar   
    26    8   57 1    
    27    9   14 ar   
    28    9   58 1    
    29   10   15 ar   
    30   10   59 1    
    31   11   16 ar   
    32   11   17 ar   
    33   11   60 1    
    34   12   27 ar   
    35   12   61 1    
    36   13   27 ar   
    37   13   62 1    
    38   14   28 ar   
    39   14   63 1    
    40   15   28 ar   
    41   15   64 1    
    42   16   25 ar   
    43   16   65 1    
    44   17   26 ar   
    45   17   66 1    
    46   18   30 1    
    47   18   34 1    
    48   18   67 1    
    49   18   68 1    
    50   19   31 1    
    51   19   34 1    
    52   19   69 1    
    53   19   70 1    
    54   20   27 1    
    55   20   35 1    
    56   20   71 1    
    57   20   72 1    
    58   21   30 1    
    59   21   35 1    
    60   21   73 1    
    61   21   74 1    
    62   22   31 1    
    63   22   36 1    
    64   22   75 1    
    65   22   76 1    
    66   23   32 1    
    67   23   36 1    
    68   23   77 1    
    69   23   78 1    
    70   24   33 1    
    71   24   40 1    
    72   24   79 1    
    73   24   80 1    
    74   25   29 ar   
    75   26   29 ar   
    76   28   41 1    
    77   29   40 1    
    78   30   31 1    
    79   30   81 1    
    80   31   82 1    
    81   32   83 1    
    82   33   35 am   BACKBONE|DICT|INTERRES
    83   33   37 2    
    84   34   84 1    
    85   34   85 1    
    86   36   41 1    
    87   38   41 2    
    88   39   41 2    
@<TRIPOS>SUBSTRUCTURE
     1 <0>         1 GROUP             0       ****    0 ROOT    
@<TRIPOS>MOLECULE
hivpr-ligand
85   88    1
SMALL
USER_CHARGES


@<TRIPOS>ATOM
      1 C1         24.9565   -1.6805   18.8039 C.3       1 <0>        -0.0650 
      2 C2         21.0971    0.5251   21.3165 C.3       1 <0>        -0.0650 
      3 C3         16.2638   -2.8904   13.6266 C.3       1 <0>        -0.1800 
      4 C4         15.6359   -5.2861   13.3268 C.3       1 <0>        -0.1800 
      5 C5         15.7088   -4.6752   19.3584 C.ar      1 <0>        -0.1150 
      6 C6         18.2671    1.4615   10.3411 C.ar      1 <0>        -0.1150 
      7 C7         16.6460   -5.3683   18.5690 C.ar      1 <0>        -0.1150 
      8 C8         15.8304   -3.2832   19.5292 C.ar      1 <0>        -0.1150 
      9 C9         19.5588    0.9632   10.0814 C.ar      1 <0>        -0.1150 
     10 C10        17.2098    0.5741   10.6227 C.ar      1 <0>        -0.1150 
     11 C11        24.3233    1.9410   19.8311 C.ar      1 <0>        -0.1150 
     12 C12        17.7022   -4.6702   17.9517 C.ar      1 <0>        -0.1150 
     13 C13        16.8860   -2.5856   18.9090 C.ar      1 <0>        -0.1150 
     14 C14        19.7969   -0.4249   10.1033 C.ar      1 <0>        -0.1150 
     15 C15        17.4448   -0.8164   10.6463 C.ar      1 <0>        -0.1150 
     16 C16        24.9252    0.7906   19.2929 C.ar      1 <0>        -0.1150 
     17 C17        23.0725    1.8441   20.4675 C.ar      1 <0>        -0.1150 
     18 C18        22.7482   -3.7058   15.0210 C.3       1 <0>         0.1700 
     19 C19        22.0652   -3.4531   12.7433 C.3       1 <0>         0.1700 
     20 C20        18.9351   -2.4685   17.4202 C.3       1 <0>         0.0650 
     21 C21        20.4235   -3.9767   16.1322 C.3       1 <0>        -0.0500 
     22 C22        19.6185   -2.7794   13.1691 C.3       1 <0>         0.0588 
     23 C23        17.9325   -4.5389   12.5847 C.3       1 <0>         0.0588 
     24 C24        21.1412   -1.8933   19.3113 C.3       1 <0>         0.1400 
     25 C25        24.2718   -0.4574   19.3768 C.ar      1 <0>        -0.1150 
     26 C26        22.4109    0.6004   20.5587 C.ar      1 <0>        -0.1150 
     27 C27        17.8359   -3.2696   18.1181 C.ar      1 <0>        -0.1150 
     28 C28        18.7369   -1.3110   10.3854 C.ar      1 <0>         0.1567 
     29 C29        22.9945   -0.5562   19.9807 C.ar      1 <0>         0.0850 
     30 C30        21.2759   -3.2921   15.0355 C.3       1 <0>        -0.0600 
     31 C31        20.8161   -3.6416   13.6137 C.3       1 <0>        -0.0233 
     32 C32        16.4539   -4.1272   12.7379 C.3       1 <0>        -0.0233 
     33 C33        21.2539   -2.9845   18.2304 C.2       1 <0>         0.5000 
     34 N1         23.2097   -3.3834   13.6642 N.4       1 <0>        -0.2000 
     35 N2         20.2507   -3.1316   17.3258 N.am      1 <0>        -0.1400 
     36 N3         18.8008   -3.4319   12.1343 N.pl3     1 <0>        -0.5376 
     37 O1         22.2731   -3.6806   18.1857 O.2       1 <0>        -0.5000 
     38 O2         17.9776   -3.7476    9.6838 O.2       1 <0>        -0.4680 
     39 O3         20.4527   -3.3358   10.1310 O.2       1 <0>        -0.4680 
     40 O4         22.3695   -1.7827   20.0343 O.3       1 <0>        -0.2850 
     41 S1         19.0401   -3.0770   10.4498 S.o2      1 <0>         0.8327 
     42 H1         26.0382   -1.5924   18.9031 H         1 <0>         0.0600 
     43 H2         24.6521   -2.5838   19.3244 H         1 <0>         0.0600 
     44 H3         24.7050   -1.7927   17.7500 H         1 <0>         0.0600 
     45 H4         21.0121    1.3439   22.0309 H         1 <0>         0.0600 
     46 H5         20.2534    0.5783   20.6298 H         1 <0>         0.0600 
     47 H6         21.0338   -0.4049   21.8813 H         1 <0>         0.0600 
     48 H7         16.6015   -3.0689   14.6493 H         1 <0>         0.0600 
     49 H8         16.8110   -2.0310   13.2426 H         1 <0>         0.0600 
     50 H9         15.2125   -2.6010   13.6661 H         1 <0>         0.0600 
     51 H10        15.9266   -5.4880   14.3577 H         1 <0>         0.0600 
     52 H11        14.5721   -5.0458   13.3245 H         1 <0>         0.0600 
     53 H12        15.7916   -6.2087   12.7680 H         1 <0>         0.0600 
     54 H13        14.8978   -5.2115   19.8309 H         1 <0>         0.1150 
     55 H14        18.0870    2.5280   10.3247 H         1 <0>         0.1150 
     56 H15        16.5533   -6.4372   18.4361 H         1 <0>         0.1150 
     57 H16        15.1087   -2.7472   20.1293 H         1 <0>         0.1150 
     58 H17        20.3703    1.6457    9.8722 H         1 <0>         0.1150 
     59 H18        16.2213    0.9616   10.8223 H         1 <0>         0.1150 
     60 H19        24.8308    2.8934   19.7737 H         1 <0>         0.1150 
     61 H20        18.4011   -5.2341   17.3555 H         1 <0>         0.1150 
     62 H21        16.9563   -1.5158   19.0384 H         1 <0>         0.1150 
     63 H22        20.7919   -0.8007    9.9157 H         1 <0>         0.1150 
     64 H23        16.6376   -1.4994   10.8704 H         1 <0>         0.1150 
     65 H24        25.8927    0.8695   18.8153 H         1 <0>         0.1150 
     66 H25        22.6305    2.7283   20.9031 H         1 <0>         0.1150 
     67 H26        22.8561   -4.7791   15.1801 H         1 <0>         0.0600 
     68 H27        23.3450   -3.1884   15.7732 H         1 <0>         0.0600 
     69 H28        22.1843   -4.2754   12.0383 H         1 <0>         0.0600 
     70 H29        22.0270   -2.5237   12.1735 H         1 <0>         0.0600 
     71 H30        19.0071   -1.4859   17.8830 H         1 <0>         0.0600 
     72 H31        18.5758   -2.2465   16.4157 H         1 <0>         0.0600 
     73 H32        19.4425   -4.2124   15.7158 H         1 <0>         0.0600 
     74 H33        20.8413   -4.9464   16.4082 H         1 <0>         0.0600 
     75 H34        19.9490   -1.7979   12.8295 H         1 <0>         0.0733 
     76 H35        18.9777   -2.5783   14.0268 H         1 <0>         0.0733 
     77 H36        18.0145   -5.3612   11.8722 H         1 <0>         0.0733 
     78 H37        18.2901   -4.9302   13.5381 H         1 <0>         0.0733 
     79 H38        20.8839   -0.9467   18.8354 H         1 <0>         0.0300 
     80 H39        20.3397   -2.1526   20.0030 H         1 <0>         0.0300 
     81 H40        21.2274   -2.2064   15.1463 H         1 <0>         0.0600 
     82 H41        20.5570   -4.7001   13.6004 H         1 <0>         0.0600 
     83 H42        16.0602   -3.8986   11.7457 H         1 <0>         0.0600 
     84 H43        23.9860   -3.9554   13.3678 H         1 <0>         0.3100 
     85 H44        23.4921   -2.4005   13.6774 H         1 <0>         0.3100 
@<TRIPOS>BOND
     1    1   25 1    
     2    1   42 1    
     3    1   43 1    
     4    1   44 1    
     5    2   26 1    
     6    2   45 1    
     7    2   46 1    
     8    2   47 1    
     9    3   32 1    
    10    3   48 1    
    11    3   49 1    
    12    3   50 1    
    13    4   32 1    
    14    4   51 1    
    15    4   52 1    
    16    4   53 1    
    17    5    7 ar   
    18    5    8 ar   
    19    5   54 1    
    20    6    9 ar   
    21    6   10 ar   
    22    6   55 1    
    23    7   12 ar   
    24    7   56 1    
    25    8   13 ar   
    26    8   57 1    
    27    9   14 ar   
    28    9   58 1    
    29   10   15 ar   
    30   10   59 1    
    31   11   16 ar   
    32   11   17 ar   
    33   11   60 1    
    34   12   27 ar   
    35   12   61 1    
    36   13   27 ar   
    37   13   62 1    
    38   14   28 ar   
    39   14   63 1    
    40   15   28 ar   
    41   15   64 1    
    42   16   25 ar   
    43   16   65 1    
    44   17   26 ar   
    45   17   66 1    
    46   18   30 1    
    47   18   34 1    
    48   18   67 1    
    49   18   68 1    
    50   19   31 1    
    51   19   34 1    
    52   19   69 1    
    53   19   70 1    
    54   20   27 1    
    55   20   35 1    
    56   20   71 1    
    57   20   72 1    
    58   21   30 1    
    59   21   35 1    
    60   21   73 1    
    61   21   74 1    
    62   22   31 1    
    63   22   36 1    
    64   22   75 1    
    65   22   76 1    
    66   23   32 1    
    67   23   36 1    
    68   23   77 1    
    69   23   78 1    
    70   24   33 1    
    71   24   40 1    
    72   24   79 1    
    73   24   80 1    
    74   25   29 ar   
    75   26   29 ar   
    76   28   41 1    
    77   29   40 1    
    78   30   31 1    
    79   30   81 1    
    80   31   82 1    
    81   32   83 1    
    82   33   35 am   BACKBONE|DICT|INTERRES
    83   33   37 2    
    84   34   84 1    
    85   34   85 1    
    86   36   41 1    
    87   38   41 2    
    88   39   41 2    
@<TRIPOS>SUBSTRUCTURE
     1 <0>         1 GROUP             0       ****    0 ROOT    
@<TRIPOS>MOLECULE
hivpr-ligand
85   88    1
SMALL
USER_CHARGES


@<TRIPOS>ATOM
      1 C1         24.7984   -1.1039   18.8604 C.3       1 <0>        -0.0650 
      2 C2         20.7798    0.5798   21.5118 C.3       1 <0>        -0.0650 
      3 C3         16.5833   -3.7722   11.4133 C.3       1 <0>        -0.1800 
      4 C4         17.1311   -6.1504   10.7701 C.3       1 <0>        -0.1800 
      5 C5         16.0117   -5.3936   18.7320 C.ar      1 <0>        -0.1150 
      6 C6         17.8037    1.7008   10.8760 C.ar      1 <0>        -0.1150 
      7 C7         17.0122   -5.8360   17.8464 C.ar      1 <0>        -0.1150 
      8 C8         15.9711   -4.0431   19.1263 C.ar      1 <0>        -0.1150 
      9 C9         17.0306    0.5295   11.0046 C.ar      1 <0>        -0.1150 
     10 C10        19.1570    1.6171   10.4916 C.ar      1 <0>        -0.1150 
     11 C11        24.1699    2.1721   20.7383 C.ar      1 <0>        -0.1150 
     12 C12        17.9691   -4.9280   17.3534 C.ar      1 <0>        -0.1150 
     13 C13        16.9274   -3.1346   18.6333 C.ar      1 <0>        -0.1150 
     14 C14        17.6089   -0.7284   10.7446 C.ar      1 <0>        -0.1150 
     15 C15        19.7398    0.3613   10.2302 C.ar      1 <0>        -0.1150 
     16 C16        24.7939    1.1721   19.9703 C.ar      1 <0>        -0.1150 
     17 C17        22.8667    1.9719   21.2293 C.ar      1 <0>        -0.1150 
     18 C18        22.8904   -3.3871   14.9503 C.3       1 <0>         0.1700 
     19 C19        22.2892   -4.2214   12.8953 C.3       1 <0>         0.1700 
     20 C20        18.9779   -2.6146   17.1719 C.3       1 <0>         0.0650 
     21 C21        20.7036   -3.9957   16.0545 C.3       1 <0>        -0.0500 
     22 C22        20.2875   -2.7154   12.7096 C.3       1 <0>         0.0588 
     23 C23        18.9726   -4.5867   11.5896 C.3       1 <0>         0.0588 
     24 C24        21.5610   -1.4194   18.5768 C.3       1 <0>         0.1400 
     25 C25        24.1140   -0.0295   19.6838 C.ar      1 <0>        -0.1150 
     26 C26        22.1774    0.7738   20.9510 C.ar      1 <0>        -0.1150 
     27 C27        17.9312   -3.5705   17.7369 C.ar      1 <0>        -0.1150 
     28 C28        18.9602   -0.8072   10.3524 C.ar      1 <0>         0.1567 
     29 C29        22.7981   -0.2258   20.1616 C.ar      1 <0>         0.0850 
     30 C30        21.3694   -3.2438   14.9056 C.3       1 <0>        -0.0600 
     31 C31        20.9701   -3.7979   13.5407 C.3       1 <0>        -0.0233 
     32 C32        17.6449   -4.7015   10.8080 C.3       1 <0>        -0.0233 
     33 C33        21.2386   -2.8724   18.1920 C.2       1 <0>         0.5000 
     34 N1         23.2821   -3.3794   13.5478 N.4       1 <0>        -0.2000 
     35 N2         20.3594   -3.1220   17.1886 N.am      1 <0>        -0.1400 
     36 N3         19.5635   -3.2314   11.5262 N.pl3     1 <0>        -0.5376 
     37 O1         21.8015   -3.7825   18.8026 O.2       1 <0>        -0.5000 
     38 O2         18.8115   -3.1098    9.0398 O.2       1 <0>        -0.4680 
     39 O3         21.1053   -2.2060    9.6971 O.2       1 <0>        -0.4680 
     40 O4         22.1458   -1.3968   19.8721 O.3       1 <0>        -0.2850 
     41 S1         19.6798   -2.4070    9.9970 S.o2      1 <0>         0.8327 
     42 H1         25.8622   -0.8962   18.7423 H         1 <0>         0.0600 
     43 H2         24.6976   -2.0766   19.3427 H         1 <0>         0.0600 
     44 H3         24.3498   -1.1623   17.8689 H         1 <0>         0.0600 
     45 H4         20.6740    1.0892   22.4699 H         1 <0>         0.0600 
     46 H5         20.0383    0.9897   20.8261 H         1 <0>         0.0600 
     47 H6         20.5564   -0.4752   21.6718 H         1 <0>         0.0600 
     48 H7         16.3619   -4.0421   12.4466 H         1 <0>         0.0600 
     49 H8         16.9159   -2.7339   11.4043 H         1 <0>         0.0600 
     50 H9         15.6503   -3.8215   10.8509 H         1 <0>         0.0600 
     51 H10        16.9553   -6.5349   11.7754 H         1 <0>         0.0600 
     52 H11        16.1933   -6.2216   10.2185 H         1 <0>         0.0600 
     53 H12        17.8448   -6.8156   10.2835 H         1 <0>         0.0600 
     54 H13        15.2774   -6.0900   19.1099 H         1 <0>         0.1150 
     55 H14        17.3605    2.6644   11.0830 H         1 <0>         0.1150 
     56 H15        17.0454   -6.8728   17.5448 H         1 <0>         0.1150 
     57 H16        15.2045   -3.7038   19.8076 H         1 <0>         0.1150 
     58 H17        15.9962    0.5956   11.3097 H         1 <0>         0.1150 
     59 H18        19.7499    2.5161   10.4040 H         1 <0>         0.1150 
     60 H19        24.6939    3.0911   20.9568 H         1 <0>         0.1150 
     61 H20        18.7310   -5.2797   16.6730 H         1 <0>         0.1150 
     62 H21        16.8746   -2.1040   18.9507 H         1 <0>         0.1150 
     63 H22        17.0196   -1.6274   10.8488 H         1 <0>         0.1150 
     64 H23        20.7779    0.3007    9.9381 H         1 <0>         0.1150 
     65 H24        25.7976    1.3319   19.6042 H         1 <0>         0.1150 
     66 H25        22.3989    2.7417   21.8258 H         1 <0>         0.1150 
     67 H26        23.2144   -4.2909   15.4663 H         1 <0>         0.0600 
     68 H27        23.3364   -2.5324   15.4588 H         1 <0>         0.0600 
     69 H28        22.4992   -5.2835   13.0212 H         1 <0>         0.0600 
     70 H29        22.2739   -4.0068   11.8267 H         1 <0>         0.0600 
     71 H30        18.9294   -1.6652   17.7079 H         1 <0>         0.0600 
     72 H31        18.6814   -2.3690   16.1511 H         1 <0>         0.0600 
     73 H32        19.7935   -4.4816   15.7018 H         1 <0>         0.0600 
     74 H33        21.3380   -4.8210   16.3835 H         1 <0>         0.0600 
     75 H34        21.0266   -1.9773   12.3991 H         1 <0>         0.0733 
     76 H35        19.5760   -2.1599   13.3192 H         1 <0>         0.0733 
     77 H36        19.6767   -5.3138   11.1855 H         1 <0>         0.0733 
     78 H37        18.8365   -4.8706   12.6328 H         1 <0>         0.0733 
     79 H38        22.2587   -1.0041   17.8489 H         1 <0>         0.0300 
     80 H39        20.6670   -0.7990   18.5652 H         1 <0>         0.0300 
     81 H40        21.0795   -2.1963   14.9876 H         1 <0>         0.0600 
     82 H41        20.2777   -4.6359   13.6201 H         1 <0>         0.0600 
     83 H42        17.7971   -4.3707    9.7810 H         1 <0>         0.0600 
     84 H43        24.2098   -3.7615   13.4315 H         1 <0>         0.3100 
     85 H44        23.3135   -2.4473   13.1602 H         1 <0>         0.3100 
@<TRIPOS>BOND
     1    1   25 1    
     2    1   42 1    
     3    1   43 1    
     4    1   44 1    
     5    2   26 1    
     6    2   45 1    
     7    2   46 1    
     8    2   47 1    
     9    3   32 1    
    10    3   48 1    
    11    3   49 1    
    12    3   50 1    
    13    4   32 1    
    14    4   51 1    
    15    4   52 1    
    16    4   53 1    
    17    5    7 ar   
    18    5    8 ar   
    19    5   54 1    
    20    6    9 ar   
    21    6   10 ar   
    22    6   55 1    
    23    7   12 ar   
    24    7   56 1    
    25    8   13 ar   
    26    8   57 1    
    27    9   14 ar   
    28    9   58 1    
    29   10   15 ar   
    30   10   59 1    
    31   11   16 ar   
    32   11   17 ar   
    33   11   60 1    
    34   12   27 ar   
    35   12   61 1    
    36   13   27 ar   
    37   13   62 1    
    38   14   28 ar   
    39   14   63 1    
    40   15   28 ar   
    41   15   64 1    
    42   16   25 ar   
    43   16   65 1    
    44   17   26 ar   
    45   17   66 1    
    46   18   30 1    
    47   18   34 1    
    48   18   67 1    
    49   18   68 1    
    50   19   31 1    
    51   19   34 1    
    52   19   69 1    
    53   19   70 1    
    54   20   27 1    
    55   20   35 1    
    56   20   71 1    
    57   20   72 1    
    58   21   30 1    
    59   21   35 1    
    60   21   73 1    
    61   21   74 1    
    62   22   31 1    
    63   22   36 1    
    64   22   75 1    
    65   22   76 1    
    66   23   32 1    
    67   23   36 1    
    68   23   77 1    
    69   23   78 1    
    70   24   33 1    
    71   24   40 1    
    72   24   79 1    
    73   24   80 1    
    74   25   29 ar   
    75   26   29 ar   
    76   28   41 1    
    77   29   40 1    
    78   30   31 1    
    79   30   81 1    
    80   31   82 1    
    81   32   83 1    
    82   33   35 am   BACKBONE|DICT|INTERRES
    83   33   37 2    
    84   34   84 1    
    85   34   85 1    
    86   36   41 1    
    87   38   41 2    
    88   39   41 2    
@<TRIPOS>SUBSTRUCTURE
     1 <0>         1 GROUP             0       ****    0 ROOT    
@<TRIPOS>MOLECULE
hivpr-ligand
85   88    1
SMALL
USER_CHARGES


@<TRIPOS>ATOM
      1 C1         24.5154   -1.8467   18.5332 C.3       1 <0>        -0.0650 
      2 C2         20.8015   -0.1352   21.5980 C.3       1 <0>        -0.0650 
      3 C3         17.0137   -3.6613   11.0527 C.3       1 <0>        -0.1800 
      4 C4         17.6801   -5.2407    9.1849 C.3       1 <0>        -0.1800 
      5 C5         15.7403   -4.9113   19.3564 C.ar      1 <0>        -0.1150 
      6 C6         17.2176    1.6426   10.8781 C.ar      1 <0>        -0.1150 
      7 C7         16.6482   -5.5607   18.4990 C.ar      1 <0>        -0.1150 
      8 C8         15.7965   -3.5120   19.5063 C.ar      1 <0>        -0.1150 
      9 C9         17.1866    0.9916    9.6307 C.ar      1 <0>        -0.1150 
     10 C10        18.2401    1.3473   11.7939 C.ar      1 <0>        -0.1150 
     11 C11        23.9327    1.5484   20.1801 C.ar      1 <0>        -0.1150 
     12 C12        17.6118   -4.8139   17.7928 C.ar      1 <0>        -0.1150 
     13 C13        16.7592   -2.7659   18.7994 C.ar      1 <0>        -0.1150 
     14 C14        18.1354    0.0065    9.3068 C.ar      1 <0>        -0.1150 
     15 C15        19.2094    0.3848   11.4636 C.ar      1 <0>        -0.1150 
     16 C16        24.5035    0.5094   19.4248 C.ar      1 <0>        -0.1150 
     17 C17        22.7260    1.3340   20.8732 C.ar      1 <0>        -0.1150 
     18 C18        22.6015   -3.4087   14.9550 C.3       1 <0>         0.1700 
     19 C19        22.2592   -4.0616   12.7364 C.3       1 <0>         0.1700 
     20 C20        18.6827   -2.5673   17.1560 C.3       1 <0>         0.0650 
     21 C21        20.1917   -3.9500   15.7495 C.3       1 <0>        -0.0500 
     22 C22        20.2168   -2.5597   12.4229 C.3       1 <0>         0.0588 
     23 C23        19.4761   -4.1021   10.5212 C.3       1 <0>         0.0588 
     24 C24        20.8060   -2.1966   19.1568 C.3       1 <0>         0.1400 
     25 C25        23.8658   -0.7461   19.3479 C.ar      1 <0>        -0.1150 
     26 C26        22.0758    0.0836   20.8010 C.ar      1 <0>        -0.1150 
     27 C27        17.6761   -3.4075   17.9386 C.ar      1 <0>        -0.1150 
     28 C28        19.1469   -0.3032   10.2319 C.ar      1 <0>         0.1567 
     29 C29        22.6332   -0.9575   20.0167 C.ar      1 <0>         0.0850 
     30 C30        21.0935   -3.2274   14.7178 C.3       1 <0>        -0.0600 
     31 C31        20.8651   -3.6914   13.2562 C.3       1 <0>        -0.0233 
     32 C32        18.0478   -3.9657    9.9584 C.3       1 <0>        -0.0233 
     33 C33        20.9803   -3.1274   17.9452 C.2       1 <0>         0.5000 
     34 N1         23.2078   -3.3834   13.6222 N.4       1 <0>        -0.2000 
     35 N2         20.0101   -3.1877   16.9979 N.am      1 <0>        -0.1400 
     36 N3         20.0593   -2.8227   10.9742 N.pl3     1 <0>        -0.5376 
     37 O1         22.0179   -3.7832   17.8529 O.2       1 <0>        -0.5000 
     38 O2         20.1040   -2.0743    8.4791 O.2       1 <0>        -0.4680 
     39 O3         21.6957   -0.9834   10.1245 O.2       1 <0>        -0.4680 
     40 O4         22.0081   -2.1795   19.9276 O.3       1 <0>        -0.2850 
     41 S1         20.3746   -1.5463    9.8257 S.o2      1 <0>         0.8327 
     42 H1         25.6010   -1.7437   18.5440 H         1 <0>         0.0600 
     43 H2         24.2797   -2.8353   18.9244 H         1 <0>         0.0600 
     44 H3         24.1807   -1.7926   17.4981 H         1 <0>         0.0600 
     45 H4         20.7305    0.5747   22.4238 H         1 <0>         0.0600 
     46 H5         19.9261   -0.0092   20.9629 H         1 <0>         0.0600 
     47 H6         20.7835   -1.1379   22.0255 H         1 <0>         0.0600 
     48 H7         17.0197   -4.4240   11.8311 H         1 <0>         0.0600 
     49 H8         17.2095   -2.6970   11.5231 H         1 <0>         0.0600 
     50 H9         16.0064   -3.6219   10.6353 H         1 <0>         0.0600 
     51 H10        17.5183   -6.0837    9.8577 H         1 <0>         0.0600 
     52 H11        16.7758   -5.0981    8.6004 H         1 <0>         0.0600 
     53 H12        18.4634   -5.5224    8.4844 H         1 <0>         0.0600 
     54 H13        15.0002   -5.4826   19.8978 H         1 <0>         0.1150 
     55 H14        16.4667    2.3788   11.1269 H         1 <0>         0.1150 
     56 H15        16.6058   -6.6335   18.3795 H         1 <0>         0.1150 
     57 H16        15.0954   -3.0105   20.1574 H         1 <0>         0.1150 
     58 H17        16.4093    1.2245    8.9253 H         1 <0>         0.1150 
     59 H18        18.2855    1.8631   12.7411 H         1 <0>         0.1150 
     60 H19        24.4301    2.5060   20.2407 H         1 <0>         0.1150 
     61 H20        18.2929   -5.3357   17.1384 H         1 <0>         0.1150 
     62 H21        16.7832   -1.6921   18.9175 H         1 <0>         0.1150 
     63 H22        18.0891   -0.4980    8.3555 H         1 <0>         0.1150 
     64 H23        20.0094    0.1961   12.1604 H         1 <0>         0.1150 
     65 H24        25.4378    0.6762   18.9070 H         1 <0>         0.1150 
     66 H25        22.3078    2.1306   21.4716 H         1 <0>         0.1150 
     67 H26        22.8203   -4.3771   15.4068 H         1 <0>         0.0600 
     68 H27        23.0243   -2.6318   15.5905 H         1 <0>         0.0600 
     69 H28        22.4179   -5.1387   12.8217 H         1 <0>         0.0600 
     70 H29        22.4093   -3.7878   11.6988 H         1 <0>         0.0600 
     71 H30        18.7603   -1.5762   17.6013 H         1 <0>         0.0600 
     72 H31        18.2456   -2.3704   16.1759 H         1 <0>         0.0600 
     73 H32        19.2170   -4.1312   15.2956 H         1 <0>         0.0600 
     74 H33        20.5799   -4.9464   15.9682 H         1 <0>         0.0600 
     75 H34        20.8533   -1.6837   12.5361 H         1 <0>         0.0733 
     76 H35        19.2425   -2.2987   12.8399 H         1 <0>         0.0733 
     77 H36        20.1384   -4.4873    9.7437 H         1 <0>         0.0733 
     78 H37        19.4857   -4.8561   11.3037 H         1 <0>         0.0733 
     79 H38        20.5466   -1.1941   18.8118 H         1 <0>         0.0300 
     80 H39        19.9869   -2.5572   19.7807 H         1 <0>         0.0300 
     81 H40        20.8845   -2.1570   14.7776 H         1 <0>         0.0600 
     82 H41        20.2360   -4.5808   13.2565 H         1 <0>         0.0600 
     83 H42        18.0100   -3.1493    9.2408 H         1 <0>         0.0600 
     84 H43        24.1258   -3.8023   13.6089 H         1 <0>         0.3100 
     85 H44        23.2717   -2.3991   13.3554 H         1 <0>         0.3100 
@<TRIPOS>BOND
     1    1   25 1    
     2    1   42 1    
     3    1   43 1    
     4    1   44 1    
     5    2   26 1    
     6    2   45 1    
     7    2   46 1    
     8    2   47 1    
     9    3   32 1    
    10    3   48 1    
    11    3   49 1    
    12    3   50 1    
    13    4   32 1    
    14    4   51 1    
    15    4   52 1    
    16    4   53 1    
    17    5    7 ar   
    18    5    8 ar   
    19    5   54 1    
    20    6    9 ar   
    21    6   10 ar   
    22    6   55 1    
    23    7   12 ar   
    24    7   56 1    
    25    8   13 ar   
    26    8   57 1    
    27    9   14 ar   
    28    9   58 1    
    29   10   15 ar   
    30   10   59 1    
    31   11   16 ar   
    32   11   17 ar   
    33   11   60 1    
    34   12   27 ar   
    35   12   61 1    
    36   13   27 ar   
    37   13   62 1    
    38   14   28 ar   
    39   14   63 1    
    40   15   28 ar   
    41   15   64 1    
    42   16   25 ar   
    43   16   65 1    
    44   17   26 ar   
    45   17   66 1    
    46   18   30 1    
    47   18   34 1    
    48   18   67 1    
    49   18   68 1    
    50   19   31 1    
    51   19   34 1    
    52   19   69 1    
    53   19   70 1    
    54   20   27 1    
    55   20   35 1    
    56   20   71 1    
    57   20   72 1    
    58   21   30 1    
    59   21   35 1    
    60   21   73 1    
    61   21   74 1    
    62   22   31 1    
    63   22   36 1    
    64   22   75 1    
    65   22   76 1    
    66   23   32 1    
    67   23   36 1    
    68   23   77 1    
    69   23   78 1    
    70   24   33 1    
    71   24   40 1    
    72   24   79 1    
    73   24   80 1    
    74   25   29 ar   
    75   26   29 ar   
    76   28   41 1    
    77   29   40 1    
    78   30   31 1    
    79   30   81 1    
    80   31   82 1    
    81   32   83 1    
    82   33   35 am   BACKBONE|DICT|INTERRES
    83   33   37 2    
    84   34   84 1    
    85   34   85 1    
    86   36   41 1    
    87   38   41 2    
    88   39   41 2    
@<TRIPOS>SUBSTRUCTURE
     1 <0>         1 GROUP             0       ****    0 ROOT    
@<TRIPOS>MOLECULE
hivpr-ligand
85   88    1
SMALL
USER_CHARGES


@<TRIPOS>ATOM
      1 C1         24.7355   -1.4747   18.8918 C.3       1 <0>        -0.0650 
      2 C2         20.9074    1.1559   20.9728 C.3       1 <0>        -0.0650 
      3 C3         16.1489   -2.5612   11.3101 C.3       1 <0>        -0.1800 
      4 C4         17.1969   -3.4778    9.1920 C.3       1 <0>        -0.1800 
      5 C5         15.7383   -4.8500   19.3081 C.ar      1 <0>        -0.1150 
      6 C6         20.4721    1.1202    7.4188 C.ar      1 <0>        -0.1150 
      7 C7         16.7740   -5.3781   18.5121 C.ar      1 <0>        -0.1150 
      8 C8         15.6165   -3.4569   19.4604 C.ar      1 <0>        -0.1150 
      9 C9         21.1430    0.5054    8.4927 C.ar      1 <0>        -0.1150 
     10 C10        19.1331    1.5363    7.5687 C.ar      1 <0>        -0.1150 
     11 C11        24.4487    2.1773   19.9605 C.ar      1 <0>        -0.1150 
     12 C12        17.6859   -4.5191   17.8726 C.ar      1 <0>        -0.1150 
     13 C13        16.5289   -2.5980   18.8145 C.ar      1 <0>        -0.1150 
     14 C14        20.4852    0.3190    9.7216 C.ar      1 <0>        -0.1150 
     15 C15        18.4732    1.3493    8.8018 C.ar      1 <0>        -0.1150 
     16 C16        24.9589    0.9714   19.4493 C.ar      1 <0>        -0.1150 
     17 C17        23.1258    2.2293   20.4349 C.ar      1 <0>        -0.1150 
     18 C18        22.2936   -3.3956   14.5865 C.3       1 <0>         0.1700 
     19 C19        21.5011   -2.8732   12.4142 C.3       1 <0>         0.1700 
     20 C20        18.5143   -2.1386   17.2887 C.3       1 <0>         0.0650 
     21 C21        20.0681   -3.4405   15.8616 C.3       1 <0>        -0.0500 
     22 C22        19.5610   -1.3286   13.1461 C.3       1 <0>         0.0588 
     23 C23        18.6358   -2.3055   10.9408 C.3       1 <0>         0.0588 
     24 C24        20.9910   -1.1797   18.7945 C.3       1 <0>         0.1400 
     25 C25        24.1513   -0.1791   19.3989 C.ar      1 <0>        -0.1150 
     26 C26        22.3075    1.0814   20.3946 C.ar      1 <0>        -0.1150 
     27 C27        17.5768   -3.1115   18.0162 C.ar      1 <0>        -0.1150 
     28 C28        19.1522    0.7483    9.8771 C.ar      1 <0>         0.1567 
     29 C29        22.8078   -0.1282   19.8460 C.ar      1 <0>         0.0850 
     30 C30        20.9413   -2.7147   14.8007 C.3       1 <0>        -0.0600 
     31 C31        20.3177   -2.6651   13.3852 C.3       1 <0>        -0.0233 
     32 C32        17.2585   -2.3740   10.2595 C.3       1 <0>        -0.0233 
     33 C33        20.9128   -2.4778   17.9626 C.2       1 <0>         0.5000 
     34 N1         22.7125   -2.9843   13.2412 N.4       1 <0>        -0.2000 
     35 N2         19.8886   -2.6393   17.0817 N.am      1 <0>        -0.1400 
     36 N3         18.7762   -1.1665   11.8885 N.pl3     1 <0>        -0.5376 
     37 O1         21.8637   -3.2566   17.9856 O.2       1 <0>        -0.5000 
     38 O2         18.8085    1.4086   12.4124 O.2       1 <0>        -0.4680 
     39 O3         16.8429    0.4659   11.1304 O.2       1 <0>        -0.4680 
     40 O4         22.0329   -1.2630   19.7614 O.3       1 <0>        -0.2850 
     41 S1         18.2845    0.4576   11.4210 S.o2      1 <0>         0.8327 
     42 H1         25.7407   -1.3254   18.5269 H         1 <0>         0.0600 
     43 H2         24.7845   -2.1840   19.7179 H         1 <0>         0.0600 
     44 H3         24.1253   -1.8893   18.0953 H         1 <0>         0.0600 
     45 H4         20.8371    1.9413   21.7250 H         1 <0>         0.0600 
     46 H5         20.1865    1.3766   20.1857 H         1 <0>         0.0600 
     47 H6         20.6479    0.2078   21.4480 H         1 <0>         0.0600 
     48 H7         16.0296   -3.6076   11.5816 H         1 <0>         0.0600 
     49 H8         16.3325   -2.0043   12.2248 H         1 <0>         0.0600 
     50 H9         15.2081   -2.1954   10.9367 H         1 <0>         0.0600 
     51 H10        17.2625   -4.4726    9.6402 H         1 <0>         0.0600 
     52 H11        16.2563   -3.4134    8.6415 H         1 <0>         0.0600 
     53 H12        18.0060   -3.3947    8.4668 H         1 <0>         0.0600 
     54 H13        15.0342   -5.5063   19.7975 H         1 <0>         0.1150 
     55 H14        20.9932    1.2725    6.4842 H         1 <0>         0.1150 
     56 H15        16.8576   -6.4481   18.3844 H         1 <0>         0.1150 
     57 H16        14.8123   -3.0469   20.0564 H         1 <0>         0.1150 
     58 H17        22.1724    0.1909    8.3781 H         1 <0>         0.1150 
     59 H18        18.6112    1.9980    6.7382 H         1 <0>         0.1150 
     60 H19        25.0864    3.0467   20.0038 H         1 <0>         0.1150 
     61 H20        18.4597   -4.9620   17.2642 H         1 <0>         0.1150 
     62 H21        16.4115   -1.5312   18.9310 H         1 <0>         0.1150 
     63 H22        21.0203   -0.1495   10.5329 H         1 <0>         0.1150 
     64 H23        17.4437    1.6657    8.9221 H         1 <0>         0.1150 
     65 H24        25.9784    0.9265   19.1156 H         1 <0>         0.1150 
     66 H25        22.7419    3.1540   20.8426 H         1 <0>         0.1150 
     67 H26        22.2041   -4.4828   14.6018 H         1 <0>         0.0600 
     68 H27        23.0327   -3.1122   15.3453 H         1 <0>         0.0600 
     69 H28        21.3660   -3.8014   11.8535 H         1 <0>         0.0600 
     70 H29        21.6087   -2.0643   11.6894 H         1 <0>         0.0600 
     71 H30        18.4964   -1.1712   17.7922 H         1 <0>         0.0600 
     72 H31        18.0635   -1.9120   16.3177 H         1 <0>         0.0600 
     73 H32        19.0895   -3.6762   15.4383 H         1 <0>         0.0600 
     74 H33        20.5020   -4.4109   16.1227 H         1 <0>         0.0600 
     75 H34        20.3023   -0.5282   13.2055 H         1 <0>         0.0733 
     76 H35        18.8727   -1.1648   13.9807 H         1 <0>         0.0733 
     77 H36        19.4227   -2.2253   10.1943 H         1 <0>         0.0733 
     78 H37        18.7638   -3.2631   11.4374 H         1 <0>         0.0733 
     79 H38        21.2108   -0.3747   18.0743 H         1 <0>         0.0300 
     80 H39        20.0401   -0.9441   19.2971 H         1 <0>         0.0300 
     81 H40        21.1492   -1.6878   15.1123 H         1 <0>         0.0600 
     82 H41        19.6500   -3.5184   13.3087 H         1 <0>         0.0600 
     83 H42        17.0922   -1.4535    9.7074 H         1 <0>         0.0600 
     84 H43        23.4222   -3.5854   12.8551 H         1 <0>         0.3100 
     85 H44        23.0893   -2.0246   13.3258 H         1 <0>         0.3100 
@<TRIPOS>BOND
     1    1   25 1    
     2    1   42 1    
     3    1   43 1    
     4    1   44 1    
     5    2   26 1    
     6    2   45 1    
     7    2   46 1    
     8    2   47 1    
     9    3   32 1    
    10    3   48 1    
    11    3   49 1    
    12    3   50 1    
    13    4   32 1    
    14    4   51 1    
    15    4   52 1    
    16    4   53 1    
    17    5    7 ar   
    18    5    8 ar   
    19    5   54 1    
    20    6    9 ar   
    21    6   10 ar   
    22    6   55 1    
    23    7   12 ar   
    24    7   56 1    
    25    8   13 ar   
    26    8   57 1    
    27    9   14 ar   
    28    9   58 1    
    29   10   15 ar   
    30   10   59 1    
    31   11   16 ar   
    32   11   17 ar   
    33   11   60 1    
    34   12   27 ar   
    35   12   61 1    
    36   13   27 ar   
    37   13   62 1    
    38   14   28 ar   
    39   14   63 1    
    40   15   28 ar   
    41   15   64 1    
    42   16   25 ar   
    43   16   65 1    
    44   17   26 ar   
    45   17   66 1    
    46   18   30 1    
    47   18   34 1    
    48   18   67 1    
    49   18   68 1    
    50   19   31 1    
    51   19   34 1    
    52   19   69 1    
    53   19   70 1    
    54   20   27 1    
    55   20   35 1    
    56   20   71 1    
    57   20   72 1    
    58   21   30 1    
    59   21   35 1    
    60   21   73 1    
    61   21   74 1    
    62   22   31 1    
    63   22   36 1    
    64   22   75 1    
    65   22   76 1    
    66   23   32 1    
    67   23   36 1    
    68   23   77 1    
    69   23   78 1    
    70   24   33 1    
    71   24   40 1    
    72   24   79 1    
    73   24   80 1    
    74   25   29 ar   
    75   26   29 ar   
    76   28   41 1    
    77   29   40 1    
    78   30   31 1    
    79   30   81 1    
    80   31   82 1    
    81   32   83 1    
    82   33   35 am   BACKBONE|DICT|INTERRES
    83   33   37 2    
    84   34   84 1    
    85   34   85 1    
    86   36   41 1    
    87   38   41 2    
    88   39   41 2    
@<TRIPOS>SUBSTRUCTURE
     1 <0>         1 GROUP             0       ****    0 ROOT    
@<TRIPOS>MOLECULE
hivpr-ligand
85   88    1
SMALL
USER_CHARGES


@<TRIPOS>ATOM
      1 C1         24.3652   -2.3286   18.5187 C.3       1 <0>        -0.0650 
      2 C2         20.8242    0.6288   20.7581 C.3       1 <0>        -0.0650 
      3 C3         16.9833   -2.3037    9.5618 C.3       1 <0>        -0.1800 
      4 C4         17.4150   -4.6415    8.7239 C.3       1 <0>        -0.1800 
      5 C5         15.6392   -4.4491   19.7671 C.ar      1 <0>        -0.1150 
      6 C6         18.4715    2.2482    8.3404 C.ar      1 <0>        -0.1150 
      7 C7         16.3203   -5.0899   18.7142 C.ar      1 <0>        -0.1150 
      8 C8         15.8123   -3.0680   19.9781 C.ar      1 <0>        -0.1150 
      9 C9         18.7767    1.9937    9.6916 C.ar      1 <0>        -0.1150 
     10 C10        18.8329    1.3235    7.3417 C.ar      1 <0>        -0.1150 
     11 C11        24.2833    1.3964   19.3320 C.ar      1 <0>        -0.1150 
     12 C12        17.1664   -4.3481   17.8669 C.ar      1 <0>        -0.1150 
     13 C13        16.6637   -2.3274   19.1342 C.ar      1 <0>        -0.1150 
     14 C14        19.4625    0.8180   10.0455 C.ar      1 <0>        -0.1150 
     15 C15        19.5172    0.1455    7.6916 C.ar      1 <0>        -0.1150 
     16 C16        24.7146    0.1288   18.9096 C.ar      1 <0>        -0.1150 
     17 C17        23.0024    1.5457   19.8922 C.ar      1 <0>        -0.1150 
     18 C18        22.0629   -2.9568   14.8390 C.3       1 <0>         0.1700 
     19 C19        21.8012   -3.5982   12.6107 C.3       1 <0>         0.1700 
     20 C20        18.2272   -2.1383   17.1387 C.3       1 <0>         0.0650 
     21 C21        19.6170   -3.4269   15.5122 C.3       1 <0>        -0.0500 
     22 C22        19.8926   -1.9862   12.1185 C.3       1 <0>         0.0588 
     23 C23        19.0503   -3.5630   10.3288 C.3       1 <0>         0.0588 
     24 C24        20.5012   -1.9215   18.9767 C.3       1 <0>         0.1400 
     25 C25        23.8590   -0.9863   19.0095 C.ar      1 <0>        -0.1150 
     26 C26        22.1489    0.4305   20.0371 C.ar      1 <0>        -0.1150 
     27 C27        17.3406   -2.9595   18.0686 C.ar      1 <0>        -0.1150 
     28 C28        19.8292   -0.0993    9.0417 C.ar      1 <0>         0.1567 
     29 C29        22.5577   -0.8431   19.5543 C.ar      1 <0>         0.0850 
     30 C30        20.5757   -2.6980   14.5289 C.3       1 <0>        -0.0600 
     31 C31        20.4094   -3.1262   13.0412 C.3       1 <0>        -0.0233 
     32 C32        18.0579   -3.3234    9.1764 C.3       1 <0>        -0.0233 
     33 C33        20.5097   -2.8770   17.7695 C.2       1 <0>         0.5000 
     34 N1         22.7460   -2.9835   13.5493 N.4       1 <0>        -0.2000 
     35 N2         19.5229   -2.7755   16.8378 N.am      1 <0>        -0.1400 
     36 N3         19.8417   -2.3636   10.6826 N.pl3     1 <0>        -0.5376 
     37 O1         21.4366   -3.6783   17.6569 O.2       1 <0>        -0.5000 
     38 O2         20.9432   -2.3986    8.3056 O.2       1 <0>        -0.4680 
     39 O3         22.0088   -0.9830   10.1249 O.2       1 <0>        -0.4680 
     40 O4         21.7581   -1.9618   19.6575 O.3       1 <0>        -0.2850 
     41 S1         20.8081   -1.5230    9.4813 S.o2      1 <0>         0.8327 
     42 H1         25.4031   -2.4827   18.8208 H         1 <0>         0.0600 
     43 H2         23.7750   -3.1478   18.9202 H         1 <0>         0.0600 
     44 H3         24.3112   -2.3760   17.4302 H         1 <0>         0.0600 
     45 H4         20.9062    1.4153   21.5097 H         1 <0>         0.0600 
     46 H5         20.0427    0.9141   20.0505 H         1 <0>         0.0600 
     47 H6         20.5163   -0.2833   21.2721 H         1 <0>         0.0600 
     48 H7         16.3002   -2.6986   10.3163 H         1 <0>         0.0600 
     49 H8         17.4131   -1.3833    9.9548 H         1 <0>         0.0600 
     50 H9         16.4098   -2.0396    8.6824 H         1 <0>         0.0600 
     51 H10        16.8245   -5.0847    9.5262 H         1 <0>         0.0600 
     52 H11        16.7549   -4.4868    7.8685 H         1 <0>         0.0600 
     53 H12        18.1688   -5.3715    8.4311 H         1 <0>         0.0600 
     54 H13        14.9840   -5.0149   20.4136 H         1 <0>         0.1150 
     55 H14        17.9760    3.1686    8.0708 H         1 <0>         0.1150 
     56 H15        16.1898   -6.1502   18.5540 H         1 <0>         0.1150 
     57 H16        15.2891   -2.5717   20.7825 H         1 <0>         0.1150 
     58 H17        18.5047    2.7125   10.4512 H         1 <0>         0.1150 
     59 H18        18.6025    1.5263    6.3076 H         1 <0>         0.1150 
     60 H19        24.9400    2.2513   19.2416 H         1 <0>         0.1150 
     61 H20        17.6714   -4.8509   17.0555 H         1 <0>         0.1150 
     62 H21        16.7830   -1.2652   19.3037 H         1 <0>         0.1150 
     63 H22        19.7360    0.6423   11.0757 H         1 <0>         0.1150 
     64 H23        19.8249   -0.5501    6.9260 H         1 <0>         0.1150 
     65 H24        25.7104    0.0141   18.5073 H         1 <0>         0.1150 
     66 H25        22.6873    2.5176   20.2464 H         1 <0>         0.1150 
     67 H26        22.2062   -3.9411   15.2853 H         1 <0>         0.0600 
     68 H27        22.4974   -2.2076   15.5017 H         1 <0>         0.0600 
     69 H28        21.8664   -4.6810   12.7241 H         1 <0>         0.0600 
     70 H29        22.0120   -3.3742   11.5699 H         1 <0>         0.0600 
     71 H30        18.3717   -1.1382   17.5426 H         1 <0>         0.0600 
     72 H31        17.6528   -1.9638   16.2269 H         1 <0>         0.0600 
     73 H32        18.6278   -3.4871   15.0577 H         1 <0>         0.0600 
     74 H33        19.9164   -4.4702   15.6334 H         1 <0>         0.0600 
     75 H34        20.5323   -1.1136   12.2378 H         1 <0>         0.0733 
     76 H35        18.8952   -1.6769   12.4327 H         1 <0>         0.0733 
     77 H36        19.7446   -4.3621   10.0632 H         1 <0>         0.0733 
     78 H37        18.4856   -3.9108   11.1944 H         1 <0>         0.0733 
     79 H38        20.2643   -0.9203   18.6229 H         1 <0>         0.0300 
     80 H39        19.7213   -2.2263   19.6749 H         1 <0>         0.0300 
     81 H40        20.3949   -1.6230   14.5975 H         1 <0>         0.0600 
     82 H41        19.7282   -3.9755   12.9870 H         1 <0>         0.0600 
     83 H42        18.5922   -2.9354    8.3139 H         1 <0>         0.0600 
     84 H43        23.6234   -3.4788   13.5946 H         1 <0>         0.3100 
     85 H44        22.9345   -1.9945   13.3236 H         1 <0>         0.3100 
@<TRIPOS>BOND
     1    1   25 1    
     2    1   42 1    
     3    1   43 1    
     4    1   44 1    
     5    2   26 1    
     6    2   45 1    
     7    2   46 1    
     8    2   47 1    
     9    3   32 1    
    10    3   48 1    
    11    3   49 1    
    12    3   50 1    
    13    4   32 1    
    14    4   51 1    
    15    4   52 1    
    16    4   53 1    
    17    5    7 ar   
    18    5    8 ar   
    19    5   54 1    
    20    6    9 ar   
    21    6   10 ar   
    22    6   55 1    
    23    7   12 ar   
    24    7   56 1    
    25    8   13 ar   
    26    8   57 1    
    27    9   14 ar   
    28    9   58 1    
    29   10   15 ar   
    30   10   59 1    
    31   11   16 ar   
    32   11   17 ar   
    33   11   60 1    
    34   12   27 ar   
    35   12   61 1    
    36   13   27 ar   
    37   13   62 1    
    38   14   28 ar   
    39   14   63 1    
    40   15   28 ar   
    41   15   64 1    
    42   16   25 ar   
    43   16   65 1    
    44   17   26 ar   
    45   17   66 1    
    46   18   30 1    
    47   18   34 1    
    48   18   67 1    
    49   18   68 1    
    50   19   31 1    
    51   19   34 1    
    52   19   69 1    
    53   19   70 1    
    54   20   27 1    
    55   20   35 1    
    56   20   71 1    
    57   20   72 1    
    58   21   30 1    
    59   21   35 1    
    60   21   73 1    
    61   21   74 1    
    62   22   31 1    
    63   22   36 1    
    64   22   75 1    
    65   22   76 1    
    66   23   32 1    
    67   23   36 1    
    68   23   77 1    
    69   23   78 1    
    70   24   33 1    
    71   24   40 1    
    72   24   79 1    
    73   24   80 1    
    74   25   29 ar   
    75   26   29 ar   
    76   28   41 1    
    77   29   40 1    
    78   30   31 1    
    79   30   81 1    
    80   31   82 1    
    81   32   83 1    
    82   33   35 am   BACKBONE|DICT|INTERRES
    83   33   37 2    
    84   34   84 1    
    85   34   85 1    
    86   36   41 1    
    87   38   41 2    
    88   39   41 2    
@<TRIPOS>SUBSTRUCTURE
     1 <0>         1 GROUP             0       ****    0 ROOT    
@<TRIPOS>MOLECULE
hivpr-ligand
85   88    1
SMALL
USER_CHARGES


@<TRIPOS>ATOM
      1 C1         20.8632    0.7184   20.2172 C.3       1 <0>        -0.0650 
      2 C2         25.5278   -1.2151   19.4126 C.3       1 <0>        -0.0650 
      3 C3         16.1621   -4.7820   12.6095 C.3       1 <0>        -0.1800 
      4 C4         16.4217   -2.4088   11.8657 C.3       1 <0>        -0.1800 
      5 C5         16.0105   -4.3132   18.9110 C.ar      1 <0>        -0.1150 
      6 C6         18.6106    1.8172    9.6221 C.ar      1 <0>        -0.1150 
      7 C7         17.0435   -5.0114   18.2579 C.ar      1 <0>        -0.1150 
      8 C8         16.0946   -2.9167   19.0588 C.ar      1 <0>        -0.1150 
      9 C9         17.6127    0.8461    9.4149 C.ar      1 <0>        -0.1150 
     10 C10        19.9552    1.4293    9.7720 C.ar      1 <0>        -0.1150 
     11 C11        24.3590    2.2445   20.5233 C.ar      1 <0>        -0.1150 
     12 C12        18.1587   -4.3131   17.7526 C.ar      1 <0>        -0.1150 
     13 C13        17.2093   -2.2194   18.5496 C.ar      1 <0>        -0.1150 
     14 C14        17.9609   -0.5172    9.3467 C.ar      1 <0>        -0.1150 
     15 C15        20.3043    0.0669    9.7226 C.ar      1 <0>        -0.1150 
     16 C16        22.9609    2.0919   20.5412 C.ar      1 <0>        -0.1150 
     17 C17        25.1767    1.1616   20.1553 C.ar      1 <0>        -0.1150 
     18 C18        22.7652   -3.3406   14.5498 C.3       1 <0>         0.1700 
     19 C19        22.1086   -4.0715   12.4320 C.3       1 <0>         0.1700 
     20 C20        19.4183   -2.0750   17.3373 C.3       1 <0>         0.0650 
     21 C21        20.4506   -3.6155   15.6694 C.3       1 <0>        -0.0500 
     22 C22        20.0399   -2.5779   12.2659 C.3       1 <0>         0.0588 
     23 C23        18.2352   -4.1229   11.3282 C.3       1 <0>         0.0588 
     24 C24        22.3478   -1.4342   17.9980 C.3       1 <0>         0.1400 
     25 C25        22.3734    0.8603   20.1820 C.ar      1 <0>        -0.1150 
     26 C26        24.6014   -0.0747   19.7913 C.ar      1 <0>        -0.1150 
     27 C27        18.2516   -2.9040   17.8870 C.ar      1 <0>        -0.1150 
     28 C28        19.3037   -0.9017    9.5136 C.ar      1 <0>         0.1567 
     29 C29        23.1921   -0.2259   19.7888 C.ar      1 <0>         0.0850 
     30 C30        21.2579   -3.0520   14.4783 C.3       1 <0>        -0.0600 
     31 C31        20.8060   -3.6235   13.1111 C.3       1 <0>        -0.0233 
     32 C32        17.1715   -3.6572   12.3489 C.3       1 <0>        -0.0233 
     33 C33        21.7798   -2.7965   17.5780 C.2       1 <0>         0.5000 
     34 N1         23.1896   -3.3839   13.1533 N.4       1 <0>        -0.2000 
     35 N2         20.6094   -2.8225   16.8998 N.am      1 <0>        -0.1400 
     36 N3         19.3453   -3.1662   11.0970 N.pl3     1 <0>        -0.5376 
     37 O1         22.4931   -3.7964   17.6934 O.2       1 <0>        -0.5000 
     38 O2         18.8813   -3.3390    8.5243 O.2       1 <0>        -0.4680 
     39 O3         21.2095   -2.7237    9.3364 O.2       1 <0>        -0.4680 
     40 O4         22.6163   -1.4098   19.3932 O.3       1 <0>        -0.2850 
     41 S1         19.7502   -2.6363    9.4845 S.o2      1 <0>         0.8327 
     42 H1         20.4225    1.4385   20.9057 H         1 <0>         0.0600 
     43 H2         20.4463    0.8944   19.2263 H         1 <0>         0.0600 
     44 H3         20.5712   -0.2786   20.5469 H         1 <0>         0.0600 
     45 H4         26.1080   -0.9551   18.5247 H         1 <0>         0.0600 
     46 H5         26.2286   -1.3967   20.2272 H         1 <0>         0.0600 
     47 H6         24.9887   -2.1412   19.2146 H         1 <0>         0.0600 
     48 H7         15.6099   -5.0030   11.6981 H         1 <0>         0.0600 
     49 H8         16.6499   -5.6995   12.9385 H         1 <0>         0.0600 
     50 H9         15.4355   -4.4960   13.3704 H         1 <0>         0.0600 
     51 H10        16.0100   -2.5599   10.8679 H         1 <0>         0.0600 
     52 H11        15.5844   -2.1829   12.5228 H         1 <0>         0.0600 
     53 H12        17.0702   -1.5351   11.8388 H         1 <0>         0.0600 
     54 H13        15.1561   -4.8487   19.2992 H         1 <0>         0.1150 
     55 H14        18.3510    2.8641    9.6781 H         1 <0>         0.1150 
     56 H15        16.9844   -6.0863   18.1537 H         1 <0>         0.1150 
     57 H16        15.3001   -2.3798   19.5584 H         1 <0>         0.1150 
     58 H17        16.5792    1.1470    9.3212 H         1 <0>         0.1150 
     59 H18        20.7152    2.1724    9.9478 H         1 <0>         0.1150 
     60 H19        24.8117    3.1871   20.7978 H         1 <0>         0.1150 
     61 H20        18.9367   -4.8934   17.2826 H         1 <0>         0.1150 
     62 H21        17.2541   -1.1457   18.6622 H         1 <0>         0.1150 
     63 H22        17.2055   -1.2695    9.1906 H         1 <0>         0.1150 
     64 H23        21.3337   -0.2218    9.8669 H         1 <0>         0.1150 
     65 H24        22.3397    2.9250   20.8335 H         1 <0>         0.1150 
     66 H25        26.2522    1.2803   20.1557 H         1 <0>         0.1150 
     67 H26        22.9643   -4.3104   15.0102 H         1 <0>         0.0600 
     68 H27        23.3194   -2.5791   15.0979 H         1 <0>         0.0600 
     69 H28        22.2448   -5.1465   12.5614 H         1 <0>         0.0600 
     70 H29        22.1206   -3.8734   11.3642 H         1 <0>         0.0600 
     71 H30        19.6728   -1.3530   18.1127 H         1 <0>         0.0600 
     72 H31        19.0510   -1.4823   16.4964 H         1 <0>         0.0600 
     73 H32        19.3977   -3.6210   15.3825 H         1 <0>         0.0600 
     74 H33        20.7138   -4.6598   15.8525 H         1 <0>         0.0600 
     75 H34        20.7384   -1.8120   11.9266 H         1 <0>         0.0733 
     76 H35        19.3165   -2.0404   12.8784 H         1 <0>         0.0733 
     77 H36        17.7350   -4.3525   10.3887 H         1 <0>         0.0733 
     78 H37        18.6661   -5.0687   11.6553 H         1 <0>         0.0733 
     79 H38        23.2776   -1.2844   17.4451 H         1 <0>         0.0300 
     80 H39        21.6903   -0.6157   17.7047 H         1 <0>         0.0300 
     81 H40        21.1319   -1.9669   14.4542 H         1 <0>         0.0600 
     82 H41        20.1761   -4.4967   13.2752 H         1 <0>         0.0600 
     83 H42        17.6447   -3.4369   13.3054 H         1 <0>         0.0600 
     84 H43        24.0911   -3.8226   13.0381 H         1 <0>         0.3100 
     85 H44        23.2365   -2.4065   12.8678 H         1 <0>         0.3100 
@<TRIPOS>BOND
     1    1   25 1    
     2    1   42 1    
     3    1   43 1    
     4    1   44 1    
     5    2   26 1    
     6    2   45 1    
     7    2   46 1    
     8    2   47 1    
     9    3   32 1    
    10    3   48 1    
    11    3   49 1    
    12    3   50 1    
    13    4   32 1    
    14    4   51 1    
    15    4   52 1    
    16    4   53 1    
    17    5    7 ar   
    18    5    8 ar   
    19    5   54 1    
    20    6    9 ar   
    21    6   10 ar   
    22    6   55 1    
    23    7   12 ar   
    24    7   56 1    
    25    8   13 ar   
    26    8   57 1    
    27    9   14 ar   
    28    9   58 1    
    29   10   15 ar   
    30   10   59 1    
    31   11   16 ar   
    32   11   17 ar   
    33   11   60 1    
    34   12   27 ar   
    35   12   61 1    
    36   13   27 ar   
    37   13   62 1    
    38   14   28 ar   
    39   14   63 1    
    40   15   28 ar   
    41   15   64 1    
    42   16   25 ar   
    43   16   65 1    
    44   17   26 ar   
    45   17   66 1    
    46   18   30 1    
    47   18   34 1    
    48   18   67 1    
    49   18   68 1    
    50   19   31 1    
    51   19   34 1    
    52   19   69 1    
    53   19   70 1    
    54   20   27 1    
    55   20   35 1    
    56   20   71 1    
    57   20   72 1    
    58   21   30 1    
    59   21   35 1    
    60   21   73 1    
    61   21   74 1    
    62   22   31 1    
    63   22   36 1    
    64   22   75 1    
    65   22   76 1    
    66   23   32 1    
    67   23   36 1    
    68   23   77 1    
    69   23   78 1    
    70   24   33 1    
    71   24   40 1    
    72   24   79 1    
    73   24   80 1    
    74   25   29 ar   
    75   26   29 ar   
    76   28   41 1    
    77   29   40 1    
    78   30   31 1    
    79   30   81 1    
    80   31   82 1    
    81   32   83 1    
    82   33   35 am   BACKBONE|DICT|INTERRES
    83   33   37 2    
    84   34   84 1    
    85   34   85 1    
    86   36   41 1    
    87   38   41 2    
    88   39   41 2    
@<TRIPOS>SUBSTRUCTURE
     1 <0>         1 GROUP             0       ****    0 ROOT    
@<TRIPOS>MOLECULE
hivpr-ligand
85   88    1
SMALL
USER_CHARGES


@<TRIPOS>ATOM
      1 C1         24.8086   -1.6670   18.7217 C.3       1 <0>        -0.0650 
      2 C2         21.3191    0.5627   21.7191 C.3       1 <0>        -0.0650 
      3 C3         17.1005   -3.7956   13.7131 C.3       1 <0>        -0.1800 
      4 C4         16.6100   -4.7199   11.4273 C.3       1 <0>        -0.1800 
      5 C5         15.6237   -4.2003   19.7879 C.ar      1 <0>        -0.1150 
      6 C6         21.0853    0.8917    8.0708 C.ar      1 <0>        -0.1150 
      7 C7         16.4336   -4.8753   18.8552 C.ar      1 <0>        -0.1150 
      8 C8         15.8624   -2.8435   20.0707 C.ar      1 <0>        -0.1150 
      9 C9         20.1564    1.8144    8.5916 C.ar      1 <0>        -0.1150 
     10 C10        21.2097   -0.3903    8.6430 C.ar      1 <0>        -0.1150 
     11 C11        24.4290    1.9253   19.9653 C.ar      1 <0>        -0.1150 
     12 C12        17.4798   -4.1905   18.2048 C.ar      1 <0>        -0.1150 
     13 C13        16.9136   -2.1606   19.4257 C.ar      1 <0>        -0.1150 
     14 C14        19.3329    1.4483    9.6728 C.ar      1 <0>        -0.1150 
     15 C15        20.3906   -0.7604    9.7272 C.ar      1 <0>        -0.1150 
     16 C16        24.9212    0.7815   19.3133 C.ar      1 <0>        -0.1150 
     17 C17        23.2455    1.8426   20.7229 C.ar      1 <0>        -0.1150 
     18 C18        22.5433   -3.2398   15.2151 C.3       1 <0>         0.1700 
     19 C19        21.8074   -3.2386   12.9691 C.3       1 <0>         0.1700 
     20 C20        18.8312   -2.0482   17.7671 C.3       1 <0>         0.0650 
     21 C21        20.2060   -3.5156   16.3165 C.3       1 <0>        -0.0500 
     22 C22        19.8015   -1.6939   13.3942 C.3       1 <0>         0.0588 
     23 C23        18.4798   -3.0563   11.6494 C.3       1 <0>         0.0588 
     24 C24        21.1020   -1.8254   19.6799 C.3       1 <0>         0.1400 
     25 C25        24.2374   -0.4482   19.4202 C.ar      1 <0>        -0.1150 
     26 C26        22.5530    0.6192   20.8368 C.ar      1 <0>        -0.1150 
     27 C27        17.7332   -2.8278   18.4895 C.ar      1 <0>        -0.1150 
     28 C28        19.4454    0.1600   10.2331 C.ar      1 <0>         0.1567 
     29 C29        23.0388   -0.5346   20.1674 C.ar      1 <0>         0.0850 
     30 C30        21.0818   -2.7882   15.2677 C.3       1 <0>        -0.0600 
     31 C31        20.5571   -2.9690   13.8260 C.3       1 <0>        -0.0233 
     32 C32        17.1085   -3.5006   12.2035 C.3       1 <0>        -0.0233 
     33 C33        21.1308   -2.7808   18.4734 C.2       1 <0>         0.5000 
     34 N1         22.9676   -2.9835   13.8353 N.4       1 <0>        -0.2000 
     35 N2         20.1055   -2.7731   17.5824 N.am      1 <0>        -0.1400 
     36 N3         18.9247   -1.7647   12.2074 N.pl3     1 <0>        -0.5376 
     37 O1         22.1107   -3.5171   18.3273 O.2       1 <0>        -0.5000 
     38 O2         18.4113    0.7566   12.6004 O.2       1 <0>        -0.4680 
     39 O3         17.0117   -0.5574   10.9236 O.2       1 <0>        -0.4680 
     40 O4         22.3990   -1.7494   20.2697 O.3       1 <0>        -0.2850 
     41 S1         18.3093   -0.2725   11.5540 S.o2      1 <0>         0.8327 
     42 H1         25.8949   -1.6009   18.6574 H         1 <0>         0.0600 
     43 H2         24.5645   -2.5834   19.2544 H         1 <0>         0.0600 
     44 H3         24.4091   -1.7412   17.7115 H         1 <0>         0.0600 
     45 H4         21.4161    1.2489   22.5567 H         1 <0>         0.0600 
     46 H5         20.4266    0.8346   21.1567 H         1 <0>         0.0600 
     47 H6         21.1826   -0.4337   22.1343 H         1 <0>         0.0600 
     48 H7         17.7645   -4.6218   13.9682 H         1 <0>         0.0600 
     49 H8         17.4021   -2.9219   14.2914 H         1 <0>         0.0600 
     50 H9         16.0988   -4.0635   14.0486 H         1 <0>         0.0600 
     51 H10        17.2566   -5.5850   11.5760 H         1 <0>         0.0600 
     52 H11        15.6089   -4.9837   11.7538 H         1 <0>         0.0600 
     53 H12        16.5526   -4.5049   10.3610 H         1 <0>         0.0600 
     54 H13        14.8170   -4.7243   20.2835 H         1 <0>         0.1150 
     55 H14        21.7161    1.1733    7.2398 H         1 <0>         0.1150 
     56 H15        16.2521   -5.9176   18.6331 H         1 <0>         0.1150 
     57 H16        15.2355   -2.3218   20.7780 H         1 <0>         0.1150 
     58 H17        20.0728    2.8027    8.1623 H         1 <0>         0.1150 
     59 H18        21.9371   -1.0865    8.2493 H         1 <0>         0.1150 
     60 H19        24.9640    2.8617   19.8919 H         1 <0>         0.1150 
     61 H20        18.0797   -4.7282   17.4870 H         1 <0>         0.1150 
     62 H21        17.0781   -1.1153   19.6464 H         1 <0>         0.1150 
     63 H22        18.6097    2.1498   10.0629 H         1 <0>         0.1150 
     64 H23        20.4879   -1.7472   10.1518 H         1 <0>         0.1150 
     65 H24        25.8332    0.8500   18.7382 H         1 <0>         0.1150 
     66 H25        22.8819    2.7194   21.2353 H         1 <0>         0.1150 
     67 H26        22.6361   -4.3099   15.4116 H         1 <0>         0.0600 
     68 H27        23.1765   -2.7061   15.9265 H         1 <0>         0.0600 
     69 H28        21.8256   -4.2856   12.6616 H         1 <0>         0.0600 
     70 H29        21.8564   -2.6231   12.0703 H         1 <0>         0.0600 
     71 H30        18.9806   -1.0905   18.2596 H         1 <0>         0.0600 
     72 H31        18.4304   -1.7654   16.7929 H         1 <0>         0.0600 
     73 H32        19.2031   -3.6472   15.9117 H         1 <0>         0.0600 
     74 H33        20.5601   -4.5315   16.4932 H         1 <0>         0.0600 
     75 H34        20.5647   -0.9482   13.2058 H         1 <0>         0.0733 
     76 H35        19.1922   -1.3167   14.2187 H         1 <0>         0.0733 
     77 H36        18.3860   -2.9301   10.5715 H         1 <0>         0.0733 
     78 H37        19.2305   -3.8339   11.7679 H         1 <0>         0.0733 
     79 H38        20.7592   -0.8410   19.3733 H         1 <0>         0.0300 
     80 H39        20.4014   -2.2084   20.4174 H         1 <0>         0.0300 
     81 H40        21.1011   -1.7196   15.4917 H         1 <0>         0.0600 
     82 H41        19.9167   -3.8459   13.7963 H         1 <0>         0.0600 
     83 H42        16.3866   -2.7017   12.0318 H         1 <0>         0.0600 
     84 H43        23.7705   -3.5366   13.5779 H         1 <0>         0.3100 
     85 H44        23.2097   -1.9790   13.7255 H         1 <0>         0.3100 
@<TRIPOS>BOND
     1    1   25 1    
     2    1   42 1    
     3    1   43 1    
     4    1   44 1    
     5    2   26 1    
     6    2   45 1    
     7    2   46 1    
     8    2   47 1    
     9    3   32 1    
    10    3   48 1    
    11    3   49 1    
    12    3   50 1    
    13    4   32 1    
    14    4   51 1    
    15    4   52 1    
    16    4   53 1    
    17    5    7 ar   
    18    5    8 ar   
    19    5   54 1    
    20    6    9 ar   
    21    6   10 ar   
    22    6   55 1    
    23    7   12 ar   
    24    7   56 1    
    25    8   13 ar   
    26    8   57 1    
    27    9   14 ar   
    28    9   58 1    
    29   10   15 ar   
    30   10   59 1    
    31   11   16 ar   
    32   11   17 ar   
    33   11   60 1    
    34   12   27 ar   
    35   12   61 1    
    36   13   27 ar   
    37   13   62 1    
    38   14   28 ar   
    39   14   63 1    
    40   15   28 ar   
    41   15   64 1    
    42   16   25 ar   
    43   16   65 1    
    44   17   26 ar   
    45   17   66 1    
    46   18   30 1    
    47   18   34 1    
    48   18   67 1    
    49   18   68 1    
    50   19   31 1    
    51   19   34 1    
    52   19   69 1    
    53   19   70 1    
    54   20   27 1    
    55   20   35 1    
    56   20   71 1    
    57   20   72 1    
    58   21   30 1    
    59   21   35 1    
    60   21   73 1    
    61   21   74 1    
    62   22   31 1    
    63   22   36 1    
    64   22   75 1    
    65   22   76 1    
    66   23   32 1    
    67   23   36 1    
    68   23   77 1    
    69   23   78 1    
    70   24   33 1    
    71   24   40 1    
    72   24   79 1    
    73   24   80 1    
    74   25   29 ar   
    75   26   29 ar   
    76   28   41 1    
    77   29   40 1    
    78   30   31 1    
    79   30   81 1    
    80   31   82 1    
    81   32   83 1    
    82   33   35 am   BACKBONE|DICT|INTERRES
    83   33   37 2    
    84   34   84 1    
    85   34   85 1    
    86   36   41 1    
    87   38   41 2    
    88   39   41 2    
@<TRIPOS>SUBSTRUCTURE
     1 <0>         1 GROUP             0       ****    0 ROOT    
@<TRIPOS>MOLECULE
hivpr-ligand
85   88    1
SMALL
USER_CHARGES


@<TRIPOS>ATOM
      1 C1         20.4182   -1.6990   21.3049 C.3       1 <0>        -0.0650 
      2 C2         24.3448    0.5653   18.9263 C.3       1 <0>        -0.0650 
      3 C3         16.1655   -4.7596   12.6151 C.3       1 <0>        -0.1800 
      4 C4         16.4160   -2.3890   11.8657 C.3       1 <0>        -0.1800 
      5 C5         16.2164   -3.9623   18.9443 C.ar      1 <0>        -0.1150 
      6 C6         18.6051    1.8197    9.5869 C.ar      1 <0>        -0.1150 
      7 C7         16.4429   -2.5808   19.0797 C.ar      1 <0>        -0.1150 
      8 C8         17.1612   -4.7633   18.2774 C.ar      1 <0>        -0.1150 
      9 C9         17.6070    0.8454    9.4014 C.ar      1 <0>        -0.1150 
     10 C10        19.9521    1.4361    9.7261 C.ar      1 <0>        -0.1150 
     11 C11        21.6106    1.9344   21.2109 C.ar      1 <0>        -0.1150 
     12 C12        17.6077   -2.0000   18.5417 C.ar      1 <0>        -0.1150 
     13 C13        18.3306   -4.1832   17.7481 C.ar      1 <0>        -0.1150 
     14 C14        17.9543   -0.5171    9.3376 C.ar      1 <0>        -0.1150 
     15 C15        20.3038    0.0752    9.6805 C.ar      1 <0>        -0.1150 
     16 C16        20.8602    0.7844   21.5121 C.ar      1 <0>        -0.1150 
     17 C17        22.7197    1.8430   20.3514 C.ar      1 <0>        -0.1150 
     18 C18        22.8710   -3.3492   14.3551 C.3       1 <0>         0.1700 
     19 C19        22.0841   -4.1086   12.3000 C.3       1 <0>         0.1700 
     20 C20        19.7988   -2.0904   17.2882 C.3       1 <0>         0.0650 
     21 C21        20.6270   -3.7062   15.5963 C.3       1 <0>        -0.0500 
     22 C22        20.0487   -2.5730   12.2430 C.3       1 <0>         0.0588 
     23 C23        18.2301   -4.1035   11.3186 C.3       1 <0>         0.0588 
     24 C24        22.7220   -1.8427   18.0768 C.3       1 <0>         0.1400 
     25 C25        21.2035   -0.4545   20.9358 C.ar      1 <0>        -0.1150 
     26 C26        23.0780    0.6086   19.7680 C.ar      1 <0>        -0.1150 
     27 C27        18.5651   -2.7901   17.8697 C.ar      1 <0>        -0.1150 
     28 C28        19.3011   -0.8967    9.4907 C.ar      1 <0>         0.1567 
     29 C29        22.2866   -0.5479   20.0311 C.ar      1 <0>         0.0850 
     30 C30        21.3572   -3.0919   14.3857 C.3       1 <0>        -0.0600 
     31 C31        20.8289   -3.6407   13.0406 C.3       1 <0>        -0.0233 
     32 C32        17.1721   -3.6350   12.3447 C.3       1 <0>        -0.0233 
     33 C33        22.0672   -3.0995   17.4954 C.2       1 <0>         0.5000 
     34 N1         23.1980   -3.3835   12.9292 N.4       1 <0>        -0.2000 
     35 N2         20.8889   -2.9715   16.8411 N.am      1 <0>        -0.1400 
     36 N3         19.3357   -3.1426   11.0814 N.pl3     1 <0>        -0.5376 
     37 O1         22.7193   -4.1448   17.4762 O.2       1 <0>        -0.5000 
     38 O2         18.8676   -3.3343    8.5248 O.2       1 <0>        -0.4680 
     39 O3         21.2054   -2.7157    9.3116 O.2       1 <0>        -0.4680 
     40 O4         22.5233   -1.7888   19.4819 O.3       1 <0>        -0.2850 
     41 S1         19.7463   -2.6270    9.4698 S.o2      1 <0>         0.8327 
     42 H1         19.6491   -1.4839   22.0473 H         1 <0>         0.0600 
     43 H2         19.9387   -2.1289   20.4263 H         1 <0>         0.0600 
     44 H3         21.0919   -2.4435   21.7244 H         1 <0>         0.0600 
     45 H4         25.0005    1.4044   19.1630 H         1 <0>         0.0600 
     46 H5         24.9097   -0.3441   19.1271 H         1 <0>         0.0600 
     47 H6         24.1116    0.6152   17.8630 H         1 <0>         0.0600 
     48 H7         15.6093   -4.9913   11.7063 H         1 <0>         0.0600 
     49 H8         16.6614   -5.6673   12.9609 H         1 <0>         0.0600 
     50 H9         15.4387   -4.4682   13.3761 H         1 <0>         0.0600 
     51 H10        16.0072   -2.5348   10.8649 H         1 <0>         0.0600 
     52 H11        15.5749   -2.1833   12.5244 H         1 <0>         0.0600 
     53 H12        17.0557   -1.5075   11.8520 H         1 <0>         0.0600 
     54 H13        15.3222   -4.4053   19.3566 H         1 <0>         0.1150 
     55 H14        18.3422    2.8663    9.6353 H         1 <0>         0.1150 
     56 H15        15.7193   -1.9635   19.5932 H         1 <0>         0.1150 
     57 H16        16.9940   -5.8262   18.1802 H         1 <0>         0.1150 
     58 H17        16.5731    1.1462    9.3175 H         1 <0>         0.1150 
     59 H18        20.7118    2.1880    9.8801 H         1 <0>         0.1150 
     60 H19        21.3528    2.8791   21.6641 H         1 <0>         0.1150 
     61 H20        17.7629   -0.9362   18.6463 H         1 <0>         0.1150 
     62 H21        19.0373   -4.8414   17.2707 H         1 <0>         0.1150 
     63 H22        17.1972   -1.2705    9.1991 H         1 <0>         0.1150 
     64 H23        21.3368   -0.2124    9.8100 H         1 <0>         0.1150 
     65 H24        20.0294    0.8561   22.1979 H         1 <0>         0.1150 
     66 H25        23.3139    2.7255   20.1583 H         1 <0>         0.1150 
     67 H26        23.1164   -4.3201   14.7898 H         1 <0>         0.0600 
     68 H27        23.4425   -2.5833   14.8810 H         1 <0>         0.0600 
     69 H28        22.2341   -5.1759   12.4673 H         1 <0>         0.0600 
     70 H29        22.0143   -3.9647   11.2276 H         1 <0>         0.0600 
     71 H30        20.1430   -1.3708   18.0315 H         1 <0>         0.0600 
     72 H31        19.4748   -1.4868   16.4389 H         1 <0>         0.0600 
     73 H32        19.5583   -3.6843   15.3788 H         1 <0>         0.0600 
     74 H33        20.8843   -4.7615   15.7110 H         1 <0>         0.0600 
     75 H34        20.7344   -1.7933   11.9056 H         1 <0>         0.0733 
     76 H35        19.3361   -2.0564   12.8849 H         1 <0>         0.0733 
     77 H36        17.7233   -4.3328   10.3824 H         1 <0>         0.0733 
     78 H37        18.6657   -5.0485   11.6415 H         1 <0>         0.0733 
     79 H38        23.7905   -1.8988   17.8639 H         1 <0>         0.0300 
     80 H39        22.3439   -0.9580   17.5614 H         1 <0>         0.0300 
     81 H40        21.2092   -2.0089   14.3981 H         1 <0>         0.0600 
     82 H41        20.1887   -4.5041   13.2239 H         1 <0>         0.0600 
     83 H42        17.6494   -3.4156   13.2998 H         1 <0>         0.0600 
     84 H43        24.0965   -3.8130   12.7611 H         1 <0>         0.3100 
     85 H44        23.2093   -2.4119   12.6313 H         1 <0>         0.3100 
@<TRIPOS>BOND
     1    1   25 1    
     2    1   42 1    
     3    1   43 1    
     4    1   44 1    
     5    2   26 1    
     6    2   45 1    
     7    2   46 1    
     8    2   47 1    
     9    3   32 1    
    10    3   48 1    
    11    3   49 1    
    12    3   50 1    
    13    4   32 1    
    14    4   51 1    
    15    4   52 1    
    16    4   53 1    
    17    5    7 ar   
    18    5    8 ar   
    19    5   54 1    
    20    6    9 ar   
    21    6   10 ar   
    22    6   55 1    
    23    7   12 ar   
    24    7   56 1    
    25    8   13 ar   
    26    8   57 1    
    27    9   14 ar   
    28    9   58 1    
    29   10   15 ar   
    30   10   59 1    
    31   11   16 ar   
    32   11   17 ar   
    33   11   60 1    
    34   12   27 ar   
    35   12   61 1    
    36   13   27 ar   
    37   13   62 1    
    38   14   28 ar   
    39   14   63 1    
    40   15   28 ar   
    41   15   64 1    
    42   16   25 ar   
    43   16   65 1    
    44   17   26 ar   
    45   17   66 1    
    46   18   30 1    
    47   18   34 1    
    48   18   67 1    
    49   18   68 1    
    50   19   31 1    
    51   19   34 1    
    52   19   69 1    
    53   19   70 1    
    54   20   27 1    
    55   20   35 1    
    56   20   71 1    
    57   20   72 1    
    58   21   30 1    
    59   21   35 1    
    60   21   73 1    
    61   21   74 1    
    62   22   31 1    
    63   22   36 1    
    64   22   75 1    
    65   22   76 1    
    66   23   32 1    
    67   23   36 1    
    68   23   77 1    
    69   23   78 1    
    70   24   33 1    
    71   24   40 1    
    72   24   79 1    
    73   24   80 1    
    74   25   29 ar   
    75   26   29 ar   
    76   28   41 1    
    77   29   40 1    
    78   30   31 1    
    79   30   81 1    
    80   31   82 1    
    81   32   83 1    
    82   33   35 am   BACKBONE|DICT|INTERRES
    83   33   37 2    
    84   34   84 1    
    85   34   85 1    
    86   36   41 1    
    87   38   41 2    
    88   39   41 2    
@<TRIPOS>SUBSTRUCTURE
     1 <0>         1 GROUP             0       ****    0 ROOT    
@<TRIPOS>MOLECULE
hivpr-ligand
85   88    1
SMALL
USER_CHARGES


@<TRIPOS>ATOM
      1 C1         23.9898   -0.9810   20.9242 C.3       1 <0>        -0.0650 
      2 C2         20.2067    1.0408   18.1593 C.3       1 <0>        -0.0650 
      3 C3         16.1944   -2.8337   11.0414 C.3       1 <0>        -0.1800 
      4 C4         17.4061   -3.6051    8.9765 C.3       1 <0>        -0.1800 
      5 C5         15.7412   -5.1087   18.3221 C.ar      1 <0>        -0.1150 
      6 C6         20.6179    1.4531    7.5467 C.ar      1 <0>        -0.1150 
      7 C7         15.6427   -3.7451   18.6556 C.ar      1 <0>        -0.1150 
      8 C8         16.9653   -5.6292   17.8596 C.ar      1 <0>        -0.1150 
      9 C9         21.1935    0.6172    8.5246 C.ar      1 <0>        -0.1150 
     10 C10        19.3237    1.9766    7.7391 C.ar      1 <0>        -0.1150 
     11 C11        23.0805    2.6387   20.1170 C.ar      1 <0>        -0.1150 
     12 C12        16.7665   -2.9042   18.5263 C.ar      1 <0>        -0.1150 
     13 C13        18.0889   -4.7884   17.7261 C.ar      1 <0>        -0.1150 
     14 C14        20.4849    0.3236    9.7067 C.ar      1 <0>        -0.1150 
     15 C15        18.6041    1.6636    8.9093 C.ar      1 <0>        -0.1150 
     16 C16        23.7390    1.5065   20.6253 C.ar      1 <0>        -0.1150 
     17 C17        21.9303    2.4784   19.3242 C.ar      1 <0>        -0.1150 
     18 C18        22.2929   -3.3732   14.4757 C.3       1 <0>         0.1700 
     19 C19        21.5149   -2.9533   12.2944 C.3       1 <0>         0.1700 
     20 C20        19.1786   -2.4430   17.9222 C.3       1 <0>         0.0650 
     21 C21        20.0144   -3.2882   15.7251 C.3       1 <0>        -0.0500 
     22 C22        19.6281   -1.3254   12.9398 C.3       1 <0>         0.0588 
     23 C23        18.6792   -2.3431   10.7672 C.3       1 <0>         0.0588 
     24 C24        22.3231   -1.8694   18.2091 C.3       1 <0>         0.1400 
     25 C25        23.2572    0.2109   20.3423 C.ar      1 <0>        -0.1150 
     26 C26        21.4409    1.1890   19.0287 C.ar      1 <0>        -0.1150 
     27 C27        17.9965   -3.4111   18.0490 C.ar      1 <0>        -0.1150 
     28 C28        19.1853    0.8349    9.8915 C.ar      1 <0>         0.1567 
     29 C29        22.1041    0.0451   19.5336 C.ar      1 <0>         0.0850 
     30 C30        20.9459   -2.6625   14.6570 C.3       1 <0>        -0.0600 
     31 C31        20.3276   -2.6724   13.2394 C.3       1 <0>        -0.0233 
     32 C32        17.3227   -2.5100   10.0500 C.3       1 <0>        -0.0233 
     33 C33        21.5514   -3.0721   17.6389 C.2       1 <0>         0.5000 
     34 N1         22.7213   -2.9835   13.1362 N.4       1 <0>        -0.2000 
     35 N2         20.3257   -2.8781   17.1056 N.am      1 <0>        -0.1400 
     36 N3         18.7292   -1.2291   11.7575 N.pl3     1 <0>        -0.5376 
     37 O1         22.1740   -4.1193   17.4549 O.2       1 <0>        -0.5000 
     38 O2         18.6014    1.2935   12.4332 O.2       1 <0>        -0.4680 
     39 O3         16.8047    0.3451   10.9242 O.2       1 <0>        -0.4680 
     40 O4         21.6112   -1.2050   19.2427 O.3       1 <0>        -0.2850 
     41 S1         18.2133    0.3963   11.3357 S.o2      1 <0>         0.8327 
     42 H1         24.5692   -0.6958   21.8027 H         1 <0>         0.0600 
     43 H2         23.2874   -1.7597   21.2252 H         1 <0>         0.0600 
     44 H3         24.6834   -1.3842   20.1874 H         1 <0>         0.0600 
     45 H4         19.8213    2.0112   17.8431 H         1 <0>         0.0600 
     46 H5         20.4371    0.4640   17.2642 H         1 <0>         0.0600 
     47 H6         19.4178    0.5293   18.7126 H         1 <0>         0.0600 
     48 H7         16.3884   -3.7651   11.5765 H         1 <0>         0.0600 
     49 H8         16.0629   -2.0480   11.7845 H         1 <0>         0.0600 
     50 H9         15.2419   -2.9473   10.5245 H         1 <0>         0.0600 
     51 H10        17.6262   -4.5763    9.4194 H         1 <0>         0.0600 
     52 H11        16.4613   -3.6981    8.4383 H         1 <0>         0.0600 
     53 H12        18.1826   -3.3847    8.2457 H         1 <0>         0.0600 
     54 H13        14.8823   -5.7579   18.4222 H         1 <0>         0.1150 
     55 H14        21.1703    1.6956    6.6504 H         1 <0>         0.1150 
     56 H15        14.7069   -3.3434   19.0169 H         1 <0>         0.1150 
     57 H16        17.0447   -6.6769   17.6110 H         1 <0>         0.1150 
     58 H17        22.1844    0.2154    8.3775 H         1 <0>         0.1150 
     59 H18        18.8813    2.6179    6.9908 H         1 <0>         0.1150 
     60 H19        23.4602    3.6258   20.3330 H         1 <0>         0.1150 
     61 H20        16.6785   -1.8609   18.7904 H         1 <0>         0.1150 
     62 H21        19.0208   -5.2250   17.3994 H         1 <0>         0.1150 
     63 H22        20.9409   -0.2924   10.4672 H         1 <0>         0.1150 
     64 H23        17.6059    2.0542    9.0514 H         1 <0>         0.1150 
     65 H24        24.6209    1.6366   21.2363 H         1 <0>         0.1150 
     66 H25        21.4339    3.3509   18.9254 H         1 <0>         0.1150 
     67 H26        22.1806   -4.4577   14.5170 H         1 <0>         0.0600 
     68 H27        23.0419   -3.0701   15.2073 H         1 <0>         0.0600 
     69 H28        21.3906   -3.9272   11.8207 H         1 <0>         0.0600 
     70 H29        21.6126   -2.2115   11.5045 H         1 <0>         0.0600 
     71 H30        19.4803   -2.2235   18.9460 H         1 <0>         0.0600 
     72 H31        18.8098   -1.5061   17.5033 H         1 <0>         0.0600 
     73 H32        18.9910   -2.9858   15.4960 H         1 <0>         0.0600 
     74 H33        20.0318   -4.3756   15.6389 H         1 <0>         0.0600 
     75 H34        20.4085   -0.5710   12.8500 H         1 <0>         0.0733 
     76 H35        19.0350   -1.0339   13.8092 H         1 <0>         0.0733 
     77 H36        19.4671   -2.1899   10.0309 H         1 <0>         0.0733 
     78 H37        18.8884   -3.2985   11.2368 H         1 <0>         0.0733 
     79 H38        23.2840   -2.2211   18.5817 H         1 <0>         0.0300 
     80 H39        22.5327   -1.1862   17.3846 H         1 <0>         0.0300 
     81 H40        21.1550   -1.6246   14.9315 H         1 <0>         0.0600 
     82 H41        19.6156   -3.4983   13.2002 H         1 <0>         0.0600 
     83 H42        17.0820   -1.5932    9.5177 H         1 <0>         0.0600 
     84 H43        23.4560   -3.5682   12.7698 H         1 <0>         0.3100 
     85 H44        23.0628   -2.0111   13.2385 H         1 <0>         0.3100 
@<TRIPOS>BOND
     1    1   25 1    
     2    1   42 1    
     3    1   43 1    
     4    1   44 1    
     5    2   26 1    
     6    2   45 1    
     7    2   46 1    
     8    2   47 1    
     9    3   32 1    
    10    3   48 1    
    11    3   49 1    
    12    3   50 1    
    13    4   32 1    
    14    4   51 1    
    15    4   52 1    
    16    4   53 1    
    17    5    7 ar   
    18    5    8 ar   
    19    5   54 1    
    20    6    9 ar   
    21    6   10 ar   
    22    6   55 1    
    23    7   12 ar   
    24    7   56 1    
    25    8   13 ar   
    26    8   57 1    
    27    9   14 ar   
    28    9   58 1    
    29   10   15 ar   
    30   10   59 1    
    31   11   16 ar   
    32   11   17 ar   
    33   11   60 1    
    34   12   27 ar   
    35   12   61 1    
    36   13   27 ar   
    37   13   62 1    
    38   14   28 ar   
    39   14   63 1    
    40   15   28 ar   
    41   15   64 1    
    42   16   25 ar   
    43   16   65 1    
    44   17   26 ar   
    45   17   66 1    
    46   18   30 1    
    47   18   34 1    
    48   18   67 1    
    49   18   68 1    
    50   19   31 1    
    51   19   34 1    
    52   19   69 1    
    53   19   70 1    
    54   20   27 1    
    55   20   35 1    
    56   20   71 1    
    57   20   72 1    
    58   21   30 1    
    59   21   35 1    
    60   21   73 1    
    61   21   74 1    
    62   22   31 1    
    63   22   36 1    
    64   22   75 1    
    65   22   76 1    
    66   23   32 1    
    67   23   36 1    
    68   23   77 1    
    69   23   78 1    
    70   24   33 1    
    71   24   40 1    
    72   24   79 1    
    73   24   80 1    
    74   25   29 ar   
    75   26   29 ar   
    76   28   41 1    
    77   29   40 1    
    78   30   31 1    
    79   30   81 1    
    80   31   82 1    
    81   32   83 1    
    82   33   35 am   BACKBONE|DICT|INTERRES
    83   33   37 2    
    84   34   84 1    
    85   34   85 1    
    86   36   41 1    
    87   38   41 2    
    88   39   41 2    
@<TRIPOS>SUBSTRUCTURE
     1 <0>         1 GROUP             0       ****    0 ROOT    
@<TRIPOS>MOLECULE
hivpr-ligand
85   88    1
SMALL
USER_CHARGES


@<TRIPOS>ATOM
      1 C1         23.4201   -0.9867   20.9041 C.3       1 <0>        -0.0650 
      2 C2         19.7820    1.5253   18.3446 C.3       1 <0>        -0.0650 
      3 C3         16.6648   -3.5343   11.0166 C.3       1 <0>        -0.1800 
      4 C4         17.2523   -5.2625    9.2472 C.3       1 <0>        -0.1800 
      5 C5         15.6910   -4.6900   19.2970 C.ar      1 <0>        -0.1150 
      6 C6         17.2761    1.5641   10.8193 C.ar      1 <0>        -0.1150 
      7 C7         16.6403   -5.4062   18.5438 C.ar      1 <0>        -0.1150 
      8 C8         15.7723   -3.2884   19.3729 C.ar      1 <0>        -0.1150 
      9 C9         18.2893    1.3090   11.7570 C.ar      1 <0>        -0.1150 
     10 C10        17.2040    0.7995    9.6416 C.ar      1 <0>        -0.1150 
     11 C11        22.8794    2.7363   20.2212 C.ar      1 <0>        -0.1150 
     12 C12        17.6678   -4.7195   17.8672 C.ar      1 <0>        -0.1150 
     13 C13        16.8002   -2.6026   18.6958 C.ar      1 <0>        -0.1150 
     14 C14        19.2096    0.2723   11.5200 C.ar      1 <0>        -0.1150 
     15 C15        18.1025   -0.2585    9.4146 C.ar      1 <0>        -0.1150 
     16 C16        23.4243    1.5318   20.7010 C.ar      1 <0>        -0.1150 
     17 C17        21.6985    2.7143   19.4573 C.ar      1 <0>        -0.1150 
     18 C18        22.6668   -3.6054   14.9628 C.3       1 <0>         0.1700 
     19 C19        22.2558   -3.9897   12.6877 C.3       1 <0>         0.1700 
     20 C20        18.8243   -2.5185   17.1768 C.3       1 <0>         0.0650 
     21 C21        20.2801   -4.0765   15.8829 C.3       1 <0>        -0.0500 
     22 C22        19.9139   -2.8885   12.6338 C.3       1 <0>         0.0588 
     23 C23        19.0792   -4.3131   10.7168 C.3       1 <0>         0.0588 
     24 C24        21.5307   -1.3976   18.0321 C.3       1 <0>         0.1400 
     25 C25        22.8008    0.3024   20.4051 C.ar      1 <0>        -0.1150 
     26 C26        21.0583    1.4923   19.1657 C.ar      1 <0>        -0.1150 
     27 C27        17.7575   -3.3086   17.9350 C.ar      1 <0>        -0.1150 
     28 C28        19.1068   -0.5255   10.3604 C.ar      1 <0>         0.1567 
     29 C29        21.6210    0.2749   19.6248 C.ar      1 <0>         0.0850 
     30 C30        21.1553   -3.4183   14.7872 C.3       1 <0>        -0.0600 
     31 C31        20.8648   -3.8860   13.3407 C.3       1 <0>        -0.0233 
     32 C32        17.7314   -4.0228   10.0211 C.3       1 <0>        -0.0233 
     33 C33        21.1977   -2.8809   17.8147 C.2       1 <0>         0.5000 
     34 N1         23.2092   -3.3830   13.6223 N.4       1 <0>        -0.2000 
     35 N2         20.1284   -3.1860   17.0452 N.am      1 <0>        -0.1400 
     36 N3         19.7708   -3.0964   11.1802 N.pl3     1 <0>        -0.5376 
     37 O1         22.0411   -3.7237   18.1283 O.2       1 <0>        -0.5000 
     38 O2         20.1141   -2.3619    8.6981 O.2       1 <0>        -0.4680 
     39 O3         21.6019   -1.3833   10.5134 O.2       1 <0>        -0.4680 
     40 O4         21.0626   -0.9357   19.2892 O.3       1 <0>        -0.2850 
     41 S1         20.2842   -1.8522   10.0694 S.o2      1 <0>         0.8327 
     42 H1         24.1599   -0.7985   21.6806 H         1 <0>         0.0600 
     43 H2         22.6569   -1.6422   21.3228 H         1 <0>         0.0600 
     44 H3         23.9132   -1.5112   20.0867 H         1 <0>         0.0600 
     45 H4         19.1226    2.3142   18.7022 H         1 <0>         0.0600 
     46 H5         20.0153    1.7345   17.3003 H         1 <0>         0.0600 
     47 H6         19.2313    0.5896   18.4066 H         1 <0>         0.0600 
     48 H7         16.4898   -4.2652   11.8084 H         1 <0>         0.0600 
     49 H8         16.9621   -2.5962   11.4899 H         1 <0>         0.0600 
     50 H9         15.7090   -3.3597   10.5215 H         1 <0>         0.0600 
     51 H10        16.9115   -6.0484    9.9248 H         1 <0>         0.0600 
     52 H11        16.4292   -5.0152    8.5734 H         1 <0>         0.0600 
     53 H12        18.0491   -5.6756    8.6299 H         1 <0>         0.0600 
     54 H13        14.9044   -5.2158   19.8180 H         1 <0>         0.1150 
     55 H14        16.5596    2.3515   10.9980 H         1 <0>         0.1150 
     56 H15        16.5823   -6.4830   18.4840 H         1 <0>         0.1150 
     57 H16        15.0441   -2.7352   19.9485 H         1 <0>         0.1150 
     58 H17        18.3664    1.9121   12.6491 H         1 <0>         0.1150 
     59 H18        16.4302    1.0158    8.9249 H         1 <0>         0.1150 
     60 H19        23.3711    3.6738   20.4375 H         1 <0>         0.1150 
     61 H20        18.3767   -5.3005   17.2994 H         1 <0>         0.1150 
     62 H21        16.8405   -1.5258   18.7576 H         1 <0>         0.1150 
     63 H22        20.0093    0.1152   12.2254 H         1 <0>         0.1150 
     64 H23        18.0243   -0.8586    8.5245 H         1 <0>         0.1150 
     65 H24        24.3304    1.5522   21.2891 H         1 <0>         0.1150 
     66 H25        21.2870    3.6367   19.0750 H         1 <0>         0.1150 
     67 H26        22.9028   -4.6212   15.2832 H         1 <0>         0.0600 
     68 H27        23.1090   -2.9074   15.6720 H         1 <0>         0.0600 
     69 H28        22.5231   -5.0362   12.5425 H         1 <0>         0.0600 
     70 H29        22.3190   -3.5014   11.7250 H         1 <0>         0.0600 
     71 H30        18.9303   -1.5523   17.6648 H         1 <0>         0.0600 
     72 H31        18.4336   -2.2866   16.1852 H         1 <0>         0.0600 
     73 H32        19.2976   -4.2860   15.4600 H         1 <0>         0.0600 
     74 H33        20.6796   -5.0460   16.1870 H         1 <0>         0.0600 
     75 H34        20.3051   -1.8871   12.7929 H         1 <0>         0.0733 
     76 H35        18.9269   -2.9064   13.0970 H         1 <0>         0.0733 
     77 H36        19.7494   -4.8200   10.0228 H         1 <0>         0.0733 
     78 H37        18.9232   -5.0048   11.5441 H         1 <0>         0.0733 
     79 H38        22.6143   -1.2860   17.9621 H         1 <0>         0.0300 
     80 H39        21.1109   -0.7982   17.2232 H         1 <0>         0.0300 
     81 H40        20.9807   -2.3419   14.8252 H         1 <0>         0.0600 
     82 H41        20.4158   -4.8800   13.3519 H         1 <0>         0.0600 
     83 H42        17.8668   -3.2423    9.2745 H         1 <0>         0.0600 
     84 H43        24.1468   -3.7422   13.5179 H         1 <0>         0.3100 
     85 H44        23.2164   -2.3722   13.4603 H         1 <0>         0.3100 
@<TRIPOS>BOND
     1    1   25 1    
     2    1   42 1    
     3    1   43 1    
     4    1   44 1    
     5    2   26 1    
     6    2   45 1    
     7    2   46 1    
     8    2   47 1    
     9    3   32 1    
    10    3   48 1    
    11    3   49 1    
    12    3   50 1    
    13    4   32 1    
    14    4   51 1    
    15    4   52 1    
    16    4   53 1    
    17    5    7 ar   
    18    5    8 ar   
    19    5   54 1    
    20    6    9 ar   
    21    6   10 ar   
    22    6   55 1    
    23    7   12 ar   
    24    7   56 1    
    25    8   13 ar   
    26    8   57 1    
    27    9   14 ar   
    28    9   58 1    
    29   10   15 ar   
    30   10   59 1    
    31   11   16 ar   
    32   11   17 ar   
    33   11   60 1    
    34   12   27 ar   
    35   12   61 1    
    36   13   27 ar   
    37   13   62 1    
    38   14   28 ar   
    39   14   63 1    
    40   15   28 ar   
    41   15   64 1    
    42   16   25 ar   
    43   16   65 1    
    44   17   26 ar   
    45   17   66 1    
    46   18   30 1    
    47   18   34 1    
    48   18   67 1    
    49   18   68 1    
    50   19   31 1    
    51   19   34 1    
    52   19   69 1    
    53   19   70 1    
    54   20   27 1    
    55   20   35 1    
    56   20   71 1    
    57   20   72 1    
    58   21   30 1    
    59   21   35 1    
    60   21   73 1    
    61   21   74 1    
    62   22   31 1    
    63   22   36 1    
    64   22   75 1    
    65   22   76 1    
    66   23   32 1    
    67   23   36 1    
    68   23   77 1    
    69   23   78 1    
    70   24   33 1    
    71   24   40 1    
    72   24   79 1    
    73   24   80 1    
    74   25   29 ar   
    75   26   29 ar   
    76   28   41 1    
    77   29   40 1    
    78   30   31 1    
    79   30   81 1    
    80   31   82 1    
    81   32   83 1    
    82   33   35 am   BACKBONE|DICT|INTERRES
    83   33   37 2    
    84   34   84 1    
    85   34   85 1    
    86   36   41 1    
    87   38   41 2    
    88   39   41 2    
@<TRIPOS>SUBSTRUCTURE
     1 <0>         1 GROUP             0       ****    0 ROOT    
@<TRIPOS>MOLECULE
hivpr-ligand
85   88    1
SMALL
USER_CHARGES


@<TRIPOS>ATOM
      1 C1         24.4903    0.2340   18.8998 C.3       1 <0>        -0.0650 
      2 C2         20.3305   -1.5643   21.2767 C.3       1 <0>        -0.0650 
      3 C3         17.0366   -1.7274    9.3967 C.3       1 <0>        -0.1800 
      4 C4         16.8224   -4.1463    9.1050 C.3       1 <0>        -0.1800 
      5 C5         16.1144   -4.3760   18.9931 C.ar      1 <0>        -0.1150 
      6 C6         18.8078    2.5681    8.1634 C.ar      1 <0>        -0.1150 
      7 C7         16.1548   -2.9793   19.1622 C.ar      1 <0>        -0.1150 
      8 C8         17.1375   -5.0217   18.2769 C.ar      1 <0>        -0.1150 
      9 C9         19.2517    1.6838    7.1619 C.ar      1 <0>        -0.1150 
     10 C10        18.9257    2.2158    9.5226 C.ar      1 <0>        -0.1150 
     11 C11        22.1237    1.8061   21.4465 C.ar      1 <0>        -0.1150 
     12 C12        17.2133   -2.2311   18.6093 C.ar      1 <0>        -0.1150 
     13 C13        18.1960   -4.2714   17.7251 C.ar      1 <0>        -0.1150 
     14 C14        19.8072    0.4378    7.5115 C.ar      1 <0>        -0.1150 
     15 C15        19.5127    0.9887    9.8819 C.ar      1 <0>        -0.1150 
     16 C16        23.1693    1.6180   20.5255 C.ar      1 <0>        -0.1150 
     17 C17        21.2050    0.7692   21.6860 C.ar      1 <0>        -0.1150 
     18 C18        22.5445   -3.3265   14.3061 C.3       1 <0>         0.1700 
     19 C19        21.8393   -3.7885   12.1329 C.3       1 <0>         0.1700 
     20 C20        19.3543   -1.9949   17.2862 C.3       1 <0>         0.0650 
     21 C21        20.1891   -3.3303   15.3495 C.3       1 <0>        -0.0500 
     22 C22        20.0989   -1.8649   12.0269 C.3       1 <0>         0.0588 
     23 C23        18.8298   -3.2506   10.3602 C.3       1 <0>         0.0588 
     24 C24        22.3478   -1.7430   17.9334 C.3       1 <0>         0.1400 
     25 C25        23.2948    0.4018   19.8208 C.ar      1 <0>        -0.1150 
     26 C26        21.3158   -0.4493   20.9874 C.ar      1 <0>        -0.1150 
     27 C27        18.2421   -2.8632   17.8813 C.ar      1 <0>        -0.1150 
     28 C28        19.9376    0.0991    8.8728 C.ar      1 <0>         0.1567 
     29 C29        22.3395   -0.6336   20.0270 C.ar      1 <0>         0.0850 
     30 C30        21.1069   -2.7778   14.2313 C.3       1 <0>        -0.0600 
     31 C31        20.6257   -3.1155   12.7950 C.3       1 <0>        -0.0233 
     32 C32        17.8382   -3.0091    9.2067 C.3       1 <0>        -0.0233 
     33 C33        21.6242   -2.9518   17.3327 C.2       1 <0>         0.5000 
     34 N1         23.0053   -3.3828   12.9253 N.4       1 <0>        -0.2000 
     35 N2         20.4687   -2.7299   16.6673 N.am      1 <0>        -0.1400 
     36 N3         19.7753   -2.1353   10.6055 N.pl3     1 <0>        -0.5376 
     37 O1         22.2101   -4.0346   17.3000 O.2       1 <0>        -0.5000 
     38 O2         20.7414   -2.3421    8.1728 O.2       1 <0>        -0.4680 
     39 O3         22.0162   -0.9835    9.9085 O.2       1 <0>        -0.4680 
     40 O4         22.3653   -1.8352   19.3509 O.3       1 <0>        -0.2850 
     41 S1         20.7480   -1.4232    9.3248 S.o2      1 <0>         0.8327 
     42 H1         25.2872    0.9304   19.1644 H         1 <0>         0.0600 
     43 H2         24.9009   -0.7739   18.9807 H         1 <0>         0.0600 
     44 H3         24.2108    0.4281   17.8641 H         1 <0>         0.0600 
     45 H4         19.9482   -1.4939   22.2956 H         1 <0>         0.0600 
     46 H5         19.4899   -1.5169   20.5831 H         1 <0>         0.0600 
     47 H6         20.8098   -2.5388   21.1766 H         1 <0>         0.0600 
     48 H7         16.4104   -1.7914   10.2822 H         1 <0>         0.0600 
     49 H8         17.6479   -0.8478    9.5160 H         1 <0>         0.0600 
     50 H9         16.4097   -1.5535    8.5278 H         1 <0>         0.0600 
     51 H10        16.3432   -4.2605   10.0770 H         1 <0>         0.0600 
     52 H11        16.0768   -3.9239    8.3407 H         1 <0>         0.0600 
     53 H12        17.2998   -5.0921    8.8503 H         1 <0>         0.0600 
     54 H13        15.3022   -4.9495   19.4191 H         1 <0>         0.1150 
     55 H14        18.3909    3.5278    7.8912 H         1 <0>         0.1150 
     56 H15        15.3715   -2.4832   19.7148 H         1 <0>         0.1150 
     57 H16        17.1151   -6.0940   18.1483 H         1 <0>         0.1150 
     58 H17        19.1875    1.9666    6.1255 H         1 <0>         0.1150 
     59 H18        18.5951    2.9047   10.2878 H         1 <0>         0.1150 
     60 H19        22.0417    2.7329   21.9914 H         1 <0>         0.1150 
     61 H20        17.2268   -1.1593   18.7448 H         1 <0>         0.1150 
     62 H21        18.9658   -4.8090   17.1967 H         1 <0>         0.1150 
     63 H22        20.1640   -0.2307    6.7412 H         1 <0>         0.1150 
     64 H23        19.6478    0.7364   10.9253 H         1 <0>         0.1150 
     65 H24        23.8873    2.4115   20.3770 H         1 <0>         0.1150 
     66 H25        20.4214    0.9069   22.4162 H         1 <0>         0.1150 
     67 H26        22.5611   -4.3411   14.7052 H         1 <0>         0.0600 
     68 H27        23.2091   -2.7042   14.9072 H         1 <0>         0.0600 
     69 H28        21.7435   -4.8730   12.2038 H         1 <0>         0.0600 
     70 H29        21.9496   -3.5581   11.0774 H         1 <0>         0.0600 
     71 H30        19.7132   -1.3429   18.0800 H         1 <0>         0.0600 
     72 H31        18.9097   -1.3283   16.5418 H         1 <0>         0.0600 
     73 H32        19.1491   -3.1361   15.0801 H         1 <0>         0.0600 
     74 H33        20.2770   -4.4166   15.4026 H         1 <0>         0.0600 
     75 H34        20.8086   -1.0412   12.0861 H         1 <0>         0.0733 
     76 H35        19.1999   -1.4974   12.5219 H         1 <0>         0.0733 
     77 H36        19.4040   -4.1576   10.1767 H         1 <0>         0.0733 
     78 H37        18.2493   -3.4279   11.2659 H         1 <0>         0.0733 
     79 H38        23.3678   -1.7700   17.5495 H         1 <0>         0.0300 
     80 H39        21.8997   -0.8121   17.5809 H         1 <0>         0.0300 
     81 H40        21.1602   -1.6889   14.3296 H         1 <0>         0.0600 
     82 H41        19.8254   -3.8530   12.8504 H         1 <0>         0.0600 
     83 H42        18.3727   -2.9834    8.2617 H         1 <0>         0.0600 
     84 H43        23.8038   -3.9872   12.8083 H         1 <0>         0.3100 
     85 H44        23.2460   -2.4218   12.6925 H         1 <0>         0.3100 
@<TRIPOS>BOND
     1    1   25 1    
     2    1   42 1    
     3    1   43 1    
     4    1   44 1    
     5    2   26 1    
     6    2   45 1    
     7    2   46 1    
     8    2   47 1    
     9    3   32 1    
    10    3   48 1    
    11    3   49 1    
    12    3   50 1    
    13    4   32 1    
    14    4   51 1    
    15    4   52 1    
    16    4   53 1    
    17    5    7 ar   
    18    5    8 ar   
    19    5   54 1    
    20    6    9 ar   
    21    6   10 ar   
    22    6   55 1    
    23    7   12 ar   
    24    7   56 1    
    25    8   13 ar   
    26    8   57 1    
    27    9   14 ar   
    28    9   58 1    
    29   10   15 ar   
    30   10   59 1    
    31   11   16 ar   
    32   11   17 ar   
    33   11   60 1    
    34   12   27 ar   
    35   12   61 1    
    36   13   27 ar   
    37   13   62 1    
    38   14   28 ar   
    39   14   63 1    
    40   15   28 ar   
    41   15   64 1    
    42   16   25 ar   
    43   16   65 1    
    44   17   26 ar   
    45   17   66 1    
    46   18   30 1    
    47   18   34 1    
    48   18   67 1    
    49   18   68 1    
    50   19   31 1    
    51   19   34 1    
    52   19   69 1    
    53   19   70 1    
    54   20   27 1    
    55   20   35 1    
    56   20   71 1    
    57   20   72 1    
    58   21   30 1    
    59   21   35 1    
    60   21   73 1    
    61   21   74 1    
    62   22   31 1    
    63   22   36 1    
    64   22   75 1    
    65   22   76 1    
    66   23   32 1    
    67   23   36 1    
    68   23   77 1    
    69   23   78 1    
    70   24   33 1    
    71   24   40 1    
    72   24   79 1    
    73   24   80 1    
    74   25   29 ar   
    75   26   29 ar   
    76   28   41 1    
    77   29   40 1    
    78   30   31 1    
    79   30   81 1    
    80   31   82 1    
    81   32   83 1    
    82   33   35 am   BACKBONE|DICT|INTERRES
    83   33   37 2    
    84   34   84 1    
    85   34   85 1    
    86   36   41 1    
    87   38   41 2    
    88   39   41 2    
@<TRIPOS>SUBSTRUCTURE
     1 <0>         1 GROUP             0       ****    0 ROOT    
@<TRIPOS>MOLECULE
hivpr-ligand
85   88    1
SMALL
USER_CHARGES


@<TRIPOS>ATOM
      1 C1         24.9866    0.4231   18.3259 C.3       1 <0>        -0.0650 
      2 C2         20.6804    0.3039   21.0492 C.3       1 <0>        -0.0650 
      3 C3         17.6397   -2.0798    9.3487 C.3       1 <0>        -0.1800 
      4 C4         16.4169   -3.4861   11.0047 C.3       1 <0>        -0.1800 
      5 C5         15.9061   -5.7600   18.0418 C.ar      1 <0>        -0.1150 
      6 C6         20.7651    0.1345    7.3491 C.ar      1 <0>        -0.1150 
      7 C7         15.2961   -4.6665   18.6866 C.ar      1 <0>        -0.1150 
      8 C8         17.2144   -5.6411   17.5400 C.ar      1 <0>        -0.1150 
      9 C9         21.2228   -0.1183    8.6520 C.ar      1 <0>        -0.1150 
     10 C10        19.5514    0.8160    7.1318 C.ar      1 <0>        -0.1150 
     11 C11        23.5671    2.8167   20.9479 C.ar      1 <0>        -0.1150 
     12 C12        15.9999   -3.4545   18.8223 C.ar      1 <0>        -0.1150 
     13 C13        17.9202   -4.4290   17.6787 C.ar      1 <0>        -0.1150 
     14 C14        20.4544    0.2952    9.7502 C.ar      1 <0>        -0.1150 
     15 C15        18.7721    1.2160    8.2367 C.ar      1 <0>        -0.1150 
     16 C16        24.4153    2.2440   19.9834 C.ar      1 <0>        -0.1150 
     17 C17        22.3506    2.1880   21.2752 C.ar      1 <0>        -0.1150 
     18 C18        20.9448   -2.6366   15.1777 C.3       1 <0>         0.1700 
     19 C19        20.6165   -2.0950   12.9016 C.3       1 <0>         0.1700 
     20 C20        18.0191   -1.9814   18.4812 C.3       1 <0>         0.0650 
     21 C21        18.8923   -1.3780   16.2536 C.3       1 <0>        -0.0500 
     22 C22        18.9204   -0.1349   13.1908 C.3       1 <0>         0.0588 
     23 C23        17.1178   -1.1681   11.7251 C.3       1 <0>         0.0588 
     24 C24        21.4336   -0.6457   18.0225 C.3       1 <0>         0.1400 
     25 C25        24.0435    1.0495   19.3330 C.ar      1 <0>        -0.1150 
     26 C26        21.9665    0.9921   20.6300 C.ar      1 <0>        -0.1150 
     27 C27        17.3112   -3.3226   18.3146 C.ar      1 <0>        -0.1150 
     28 C28        19.2237    0.9381    9.5437 C.ar      1 <0>         0.1567 
     29 C29        22.8055    0.4324   19.6330 C.ar      1 <0>         0.0850 
     30 C30        20.0066   -1.4214   15.1656 C.3       1 <0>        -0.0600 
     31 C31        19.4507   -1.4918   13.7172 C.3       1 <0>        -0.0233 
     32 C32        17.4798   -2.3930   10.8466 C.3       1 <0>        -0.0233 
     33 C33        20.4276   -1.7866   18.2581 C.2       1 <0>         0.5000 
     34 N1         21.6069   -2.5838   13.8701 N.4       1 <0>        -0.2000 
     35 N2         19.2165   -1.7430   17.6522 N.am      1 <0>        -0.1400 
     36 N3         18.2123   -0.1784   11.8838 N.pl3     1 <0>        -0.5376 
     37 O1         20.6914   -2.6549   19.0988 O.2       1 <0>        -0.5000 
     38 O2         18.8092    2.3639   11.7238 O.2       1 <0>        -0.4680 
     39 O3         16.8094    1.4694   10.4280 O.2       1 <0>        -0.4680 
     40 O4         22.4770   -0.7369   18.9891 O.3       1 <0>        -0.2850 
     41 S1         18.1741    1.2957   10.9382 S.o2      1 <0>         0.8327 
     42 H1         25.8380    1.0749   18.1236 H         1 <0>         0.0600 
     43 H2         25.3735   -0.5215   18.7104 H         1 <0>         0.0600 
     44 H3         24.4736    0.2282   17.3827 H         1 <0>         0.0600 
     45 H4         20.3464    0.6556   22.0276 H         1 <0>         0.0600 
     46 H5         19.8844    0.4985   20.3296 H         1 <0>         0.0600 
     47 H6         20.8283   -0.7744   21.1293 H         1 <0>         0.0600 
     48 H7         16.8108   -1.4816    8.9726 H         1 <0>         0.0600 
     49 H8         18.5645   -1.5513    9.1503 H         1 <0>         0.0600 
     50 H9         17.6856   -2.9967    8.7602 H         1 <0>         0.0600 
     51 H10        15.4918   -3.1731   10.5250 H         1 <0>         0.0600 
     52 H11        16.7254   -4.4166   10.5286 H         1 <0>         0.0600 
     53 H12        16.2042   -3.7104   12.0518 H         1 <0>         0.0600 
     54 H13        15.3620   -6.6874   17.9310 H         1 <0>         0.1150 
     55 H14        21.3667   -0.1969    6.5268 H         1 <0>         0.1150 
     56 H15        14.2911   -4.7566   19.0745 H         1 <0>         0.1150 
     57 H16        17.6714   -6.4828   17.0437 H         1 <0>         0.1150 
     58 H17        22.1690   -0.6140    8.8106 H         1 <0>         0.1150 
     59 H18        19.2116    1.0177    6.1262 H         1 <0>         0.1150 
     60 H19        23.8591    3.7272   21.4509 H         1 <0>         0.1150 
     61 H20        15.5203   -2.6218   19.3197 H         1 <0>         0.1150 
     62 H21        18.9250   -4.3563   17.2897 H         1 <0>         0.1150 
     63 H22        20.8070    0.1046   10.7460 H         1 <0>         0.1150 
     64 H23        17.8266    1.7154    8.0852 H         1 <0>         0.1150 
     65 H24        25.3566    2.7215   19.7524 H         1 <0>         0.1150 
     66 H25        21.7237    2.6175   22.0426 H         1 <0>         0.1150 
     67 H26        20.3749   -3.5636   15.2515 H         1 <0>         0.0600 
     68 H27        21.6898   -2.6363   15.9685 H         1 <0>         0.0600 
     69 H28        20.2866   -2.9313   12.2870 H         1 <0>         0.0600 
     70 H29        21.1051   -1.3838   12.2458 H         1 <0>         0.0600 
     71 H30        18.2521   -1.8662   19.5428 H         1 <0>         0.0600 
     72 H31        17.2942   -1.1912   18.2705 H         1 <0>         0.0600 
     73 H32        18.4189   -0.3942   16.2505 H         1 <0>         0.0600 
     74 H33        18.1091   -2.0740   15.9346 H         1 <0>         0.0600 
     75 H34        19.7561    0.5616   13.1299 H         1 <0>         0.0733 
     76 H35        18.2310    0.2963   13.9185 H         1 <0>         0.0733 
     77 H36        16.8097   -1.5118   12.7113 H         1 <0>         0.0733 
     78 H37        16.2259   -0.6890   11.3213 H         1 <0>         0.0733 
     79 H38        21.8988   -0.7211   17.0436 H         1 <0>         0.0300 
     80 H39        20.9107    0.3119   18.0545 H         1 <0>         0.0300 
     81 H40        20.6102   -0.5168   15.2457 H         1 <0>         0.0600 
     82 H41        18.6440   -2.2253   13.7201 H         1 <0>         0.0600 
     83 H42        18.4136   -2.8155   11.2030 H         1 <0>         0.0600 
     84 H43        22.0017   -3.4727   13.6056 H         1 <0>         0.3100 
     85 H44        22.3486   -1.8799   13.9029 H         1 <0>         0.3100 
@<TRIPOS>BOND
     1    1   25 1    
     2    1   42 1    
     3    1   43 1    
     4    1   44 1    
     5    2   26 1    
     6    2   45 1    
     7    2   46 1    
     8    2   47 1    
     9    3   32 1    
    10    3   48 1    
    11    3   49 1    
    12    3   50 1    
    13    4   32 1    
    14    4   51 1    
    15    4   52 1    
    16    4   53 1    
    17    5    7 ar   
    18    5    8 ar   
    19    5   54 1    
    20    6    9 ar   
    21    6   10 ar   
    22    6   55 1    
    23    7   12 ar   
    24    7   56 1    
    25    8   13 ar   
    26    8   57 1    
    27    9   14 ar   
    28    9   58 1    
    29   10   15 ar   
    30   10   59 1    
    31   11   16 ar   
    32   11   17 ar   
    33   11   60 1    
    34   12   27 ar   
    35   12   61 1    
    36   13   27 ar   
    37   13   62 1    
    38   14   28 ar   
    39   14   63 1    
    40   15   28 ar   
    41   15   64 1    
    42   16   25 ar   
    43   16   65 1    
    44   17   26 ar   
    45   17   66 1    
    46   18   30 1    
    47   18   34 1    
    48   18   67 1    
    49   18   68 1    
    50   19   31 1    
    51   19   34 1    
    52   19   69 1    
    53   19   70 1    
    54   20   27 1    
    55   20   35 1    
    56   20   71 1    
    57   20   72 1    
    58   21   30 1    
    59   21   35 1    
    60   21   73 1    
    61   21   74 1    
    62   22   31 1    
    63   22   36 1    
    64   22   75 1    
    65   22   76 1    
    66   23   32 1    
    67   23   36 1    
    68   23   77 1    
    69   23   78 1    
    70   24   33 1    
    71   24   40 1    
    72   24   79 1    
    73   24   80 1    
    74   25   29 ar   
    75   26   29 ar   
    76   28   41 1    
    77   29   40 1    
    78   30   31 1    
    79   30   81 1    
    80   31   82 1    
    81   32   83 1    
    82   33   35 am   BACKBONE|DICT|INTERRES
    83   33   37 2    
    84   34   84 1    
    85   34   85 1    
    86   36   41 1    
    87   38   41 2    
    88   39   41 2    
@<TRIPOS>SUBSTRUCTURE
     1 <0>         1 GROUP             0       ****    0 ROOT    
