@<TRIPOS>MOLECULE
hivrt-ligand
49   50    1
SMALL
USER_CHARGES


@<TRIPOS>ATOM
      1 C1          5.6958    8.6075   17.3205 C.3       1 <0>        -0.1800 
      2 C2         10.6275   16.1520   19.5354 C.3       1 <0>        -0.0650 
      3 C3         13.0968   11.3081   15.3406 C.3       1 <0>        -0.1800 
      4 C4         13.1158   13.6704   16.2767 C.3       1 <0>        -0.1800 
      5 C5         10.2681   13.9749   20.7858 C.ar      1 <0>        -0.1150 
      6 C6         10.5508   13.9053   18.3643 C.ar      1 <0>        -0.1150 
      7 C7         10.1751   11.8453   19.5932 C.ar      1 <0>        -0.1150 
      8 C8          6.1461   10.0699   17.4198 C.3       1 <0>        -0.1200 
      9 C9          7.2439   10.4407   16.4129 C.3       1 <0>        -0.1200 
     10 C10         7.6097   11.9348   16.4937 C.3       1 <0>         0.0025 
     11 C11         9.6658   11.8780   21.9815 C.1       1 <0>         0.3950 
     12 C12        10.4891   14.6432   19.5650 C.ar      1 <0>        -0.1150 
     13 C13        10.0892   12.5780   20.7881 C.ar      1 <0>         0.0350 
     14 C14        10.4256   12.4964   18.3722 C.ar      1 <0>        -0.1150 
     15 C15        11.0114   12.8089   15.0147 C.ar      1 <0>         0.0300 
     16 C16        10.0502   12.3206   15.8713 C.ar      1 <0>         0.1800 
     17 C17        10.5635   13.4063   13.7479 C.ar      1 <0>         0.4500 
     18 C18         8.2423   12.7750   14.3125 C.ar      1 <0>         0.5000 
     19 C19        12.5474   12.7323   15.2022 C.3       1 <0>        -0.0600 
     20 C20        10.4442   11.6687   17.1357 C.2       1 <0>         0.5850 
     21 N1          9.2892   11.3076   22.9167 N.1       1 <0>        -0.4300 
     22 N2          9.2077   13.3076   13.4830 N.pl3     1 <0>        -0.5100 
     23 N3          8.6733   12.3357   15.5794 N.pl3     1 <0>        -0.3125 
     24 O1         11.2727   13.9669   12.9125 O.2       1 <0>        -0.4200 
     25 O2          7.0754   12.7282   13.9245 O.2       1 <0>        -0.4000 
     26 O3         10.6768   10.4596   17.1713 O.2       1 <0>        -0.4700 
     27 H1          4.8891    8.4029   18.0249 H         1 <0>         0.0600 
     28 H2          5.3315    8.3756   16.3197 H         1 <0>         0.0600 
     29 H3          6.5117    7.9224   17.5472 H         1 <0>         0.0600 
     30 H4         10.8889   16.5415   20.5199 H         1 <0>         0.0600 
     31 H5         11.4065   16.4553   18.8353 H         1 <0>         0.0600 
     32 H6          9.6892   16.6118   19.2252 H         1 <0>         0.0600 
     33 H7         12.5822   10.6091   14.6830 H         1 <0>         0.0600 
     34 H8         14.1556   11.3075   15.0830 H         1 <0>         0.0600 
     35 H9         13.0206   10.9261   16.3546 H         1 <0>         0.0600 
     36 H10        12.7319   14.6850   16.1669 H         1 <0>         0.0600 
     37 H11        12.8965   13.3204   17.2824 H         1 <0>         0.0600 
     38 H12        14.2021   13.7210   16.1964 H         1 <0>         0.0600 
     39 H13        10.1822   14.5359   21.7064 H         1 <0>         0.1150 
     40 H14        10.6994   14.4377   17.4377 H         1 <0>         0.1150 
     41 H15        10.0164   10.7753   19.6157 H         1 <0>         0.1150 
     42 H16         6.4892   10.2723   18.4339 H         1 <0>         0.0600 
     43 H17         5.2891   10.7191   17.2571 H         1 <0>         0.0600 
     44 H18         6.9079   10.2017   15.4030 H         1 <0>         0.0600 
     45 H19         8.1227    9.8251   16.6018 H         1 <0>         0.0600 
     46 H20         7.9177   12.2195   17.4977 H         1 <0>         0.0600 
     47 H21         6.7407   12.5681   16.3023 H         1 <0>         0.0600 
     48 H22        13.0082   13.0781   14.2783 H         1 <0>         0.0600 
     49 H23         8.8892   13.6716   12.5845 H         1 <0>         0.3600 
@<TRIPOS>BOND
     1    1    8 1    
     2    1   27 1    
     3    1   28 1    
     4    1   29 1    
     5    2   12 1    
     6    2   30 1    
     7    2   31 1    
     8    2   32 1    
     9    3   19 1    
    10    3   33 1    
    11    3   34 1    
    12    3   35 1    
    13    4   19 1    
    14    4   36 1    
    15    4   37 1    
    16    4   38 1    
    17    5   12 ar   
    18    5   13 ar   
    19    5   39 1    
    20    6   12 ar   
    21    6   14 ar   
    22    6   40 1    
    23    7   13 ar   
    24    7   14 ar   
    25    7   41 1    
    26    8    9 1    
    27    8   42 1    
    28    8   43 1    
    29    9   10 1    
    30    9   44 1    
    31    9   45 1    
    32   10   23 1    
    33   10   46 1    
    34   10   47 1    
    35   11   13 1    
    36   11   21 3    
    37   14   20 1    
    38   15   16 ar   
    39   15   17 ar   
    40   15   19 1    
    41   16   20 1    
    42   16   23 ar   
    43   17   22 ar   
    44   17   24 2    
    45   18   22 ar   
    46   18   23 ar   
    47   18   25 2    
    48   19   48 1    
    49   20   26 2    
    50   22   49 1    
@<TRIPOS>SUBSTRUCTURE
     1 <0>         1 GROUP             0       ****    0 ROOT    
@<TRIPOS>MOLECULE
hivrt-ligand
49   50    1
SMALL
USER_CHARGES


@<TRIPOS>ATOM
      1 C1          5.6705    8.4122   17.5519 C.3       1 <0>        -0.1800 
      2 C2          9.6892   11.7106   22.2843 C.3       1 <0>        -0.0650 
      3 C3         12.9625   14.0584   15.7057 C.3       1 <0>        -0.1800 
      4 C4         13.2485   11.7419   14.6813 C.3       1 <0>        -0.1800 
      5 C5         10.1396   13.7197   20.8710 C.ar      1 <0>        -0.1150 
      6 C6         10.0576   11.5515   19.7563 C.ar      1 <0>        -0.1150 
      7 C7         10.3864   13.5747   18.4491 C.ar      1 <0>        -0.1150 
      8 C8          6.0700    9.8910   17.5794 C.3       1 <0>        -0.1200 
      9 C9          7.0743   10.2542   16.4778 C.3       1 <0>        -0.1200 
     10 C10         7.4351   11.7469   16.4892 C.3       1 <0>         0.0025 
     11 C11        10.4192   15.7654   19.5481 C.1       1 <0>         0.3950 
     12 C12         9.9834   12.3276   20.9356 C.ar      1 <0>        -0.1150 
     13 C13        10.3302   14.3337   19.6268 C.ar      1 <0>         0.0350 
     14 C14        10.2511   12.1735   18.4998 C.ar      1 <0>        -0.1150 
     15 C15        10.8911   12.6027   15.1972 C.ar      1 <0>         0.0300 
     16 C16         9.8923   12.0678   15.9775 C.ar      1 <0>         0.1800 
     17 C17        10.5229   13.1767   13.8872 C.ar      1 <0>         0.4500 
     18 C18         8.1765   12.5329   14.3137 C.ar      1 <0>         0.5000 
     19 C19        12.3895   12.6316   15.5923 C.3       1 <0>        -0.0600 
     20 C20        10.2387   11.3683   17.2483 C.2       1 <0>         0.5850 
     21 N1         10.4848   16.9077   19.4818 N.1       1 <0>        -0.4300 
     22 N2          9.1833   13.0713   13.5307 N.pl3     1 <0>        -0.5100 
     23 N3          8.5385   12.0862   15.6030 N.pl3     1 <0>        -0.3125 
     24 O1         11.2889   13.7080   13.0847 O.2       1 <0>        -0.4200 
     25 O2          7.0299   12.4884   13.8694 O.2       1 <0>        -0.4000 
     26 O3         10.4794   10.1615   17.2602 O.2       1 <0>        -0.4700 
     27 H1          4.8920    8.2081   18.2870 H         1 <0>         0.0600 
     28 H2          5.2882    8.1250   16.5730 H         1 <0>         0.0600 
     29 H3          6.5167    7.7652   17.7795 H         1 <0>         0.0600 
     30 H4          8.7349   12.0428   22.6824 H         1 <0>         0.0600 
     31 H5          9.6885   10.6215   22.2438 H         1 <0>         0.0600 
     32 H6         10.4736   12.0573   22.9657 H         1 <0>         0.0600 
     33 H7         12.4141   14.6555   16.4326 H         1 <0>         0.0600 
     34 H8         14.0024   14.0289   16.0319 H         1 <0>         0.0600 
     35 H9         12.9406   14.5972   14.7597 H         1 <0>         0.0600 
     36 H10        12.8693   10.7202   14.6832 H         1 <0>         0.0600 
     37 H11        13.2670   12.0982   13.6515 H         1 <0>         0.0600 
     38 H12        14.2818   11.7082   15.0260 H         1 <0>         0.0600 
     39 H13        10.0784   14.3146   21.7724 H         1 <0>         0.1150 
     40 H14         9.9314   10.4802   19.8168 H         1 <0>         0.1150 
     41 H15        10.5127   14.0895   17.5092 H         1 <0>         0.1150 
     42 H16         6.4893   10.1306   18.5560 H         1 <0>         0.0600 
     43 H17         5.1789   10.5087   17.4831 H         1 <0>         0.0600 
     44 H18         6.6722    9.9827   15.5010 H         1 <0>         0.0600 
     45 H19         7.9753    9.6626   16.6186 H         1 <0>         0.0600 
     46 H20         7.7178   12.0849   17.4849 H         1 <0>         0.0600 
     47 H21         6.5766   12.3697   16.2318 H         1 <0>         0.0600 
     48 H22        12.5291   12.2149   16.5870 H         1 <0>         0.0600 
     49 H23         8.9041   13.4412   12.6248 H         1 <0>         0.3600 
@<TRIPOS>BOND
     1    1    8 1    
     2    1   27 1    
     3    1   28 1    
     4    1   29 1    
     5    2   12 1    
     6    2   30 1    
     7    2   31 1    
     8    2   32 1    
     9    3   19 1    
    10    3   33 1    
    11    3   34 1    
    12    3   35 1    
    13    4   19 1    
    14    4   36 1    
    15    4   37 1    
    16    4   38 1    
    17    5   12 ar   
    18    5   13 ar   
    19    5   39 1    
    20    6   12 ar   
    21    6   14 ar   
    22    6   40 1    
    23    7   13 ar   
    24    7   14 ar   
    25    7   41 1    
    26    8    9 1    
    27    8   42 1    
    28    8   43 1    
    29    9   10 1    
    30    9   44 1    
    31    9   45 1    
    32   10   23 1    
    33   10   46 1    
    34   10   47 1    
    35   11   13 1    
    36   11   21 3    
    37   14   20 1    
    38   15   16 ar   
    39   15   17 ar   
    40   15   19 1    
    41   16   20 1    
    42   16   23 ar   
    43   17   22 ar   
    44   17   24 2    
    45   18   22 ar   
    46   18   23 ar   
    47   18   25 2    
    48   19   48 1    
    49   20   26 2    
    50   22   49 1    
@<TRIPOS>SUBSTRUCTURE
     1 <0>         1 GROUP             0       ****    0 ROOT    
