@<TRIPOS>MOLECULE
hmdh-ligand
67   69    1
SMALL
USER_CHARGES


@<TRIPOS>ATOM
      1 C1        -13.2822    4.5040   45.9836 C.3       1 <0>        -0.1800 
      2 C2        -15.0991    5.0226   44.2777 C.3       1 <0>        -0.1800 
      3 C3        -20.2065    3.2712   50.2509 C.ar      1 <0>        -0.1150 
      4 C4        -18.9094    3.6175   50.6746 C.ar      1 <0>        -0.1150 
      5 C5        -20.9900    4.2084   49.5513 C.ar      1 <0>        -0.1150 
      6 C6        -18.3978    4.9011   50.4016 C.ar      1 <0>        -0.1150 
      7 C7        -20.4780    5.4913   49.2767 C.ar      1 <0>        -0.1150 
      8 C8        -14.3998   11.1441   46.4371 C.ar      1 <0>        -0.1150 
      9 C9        -12.2069   10.0724   46.4381 C.ar      1 <0>        -0.1150 
     10 C10       -13.7824   12.4061   46.3345 C.ar      1 <0>        -0.1150 
     11 C11       -11.5905   11.3350   46.3347 C.ar      1 <0>        -0.1150 
     12 C12       -13.3221    7.9268   43.5113 C.3       1 <0>        -0.1200 
     13 C13       -12.8360    7.4851   44.9046 C.3       1 <0>         0.0025 
     14 C14       -18.5960    7.2295   49.4267 C.3       1 <0>         0.1950 
     15 C15       -12.7477    8.1965   41.0182 C.3       1 <0>        -0.1200 
     16 C16       -13.0093   10.3811   39.6459 C.3       1 <0>        -0.2200 
     17 C17       -19.1790    5.8490   49.7071 C.ar      1 <0>        -0.1150 
     18 C18       -13.6126    9.9752   46.4958 C.ar      1 <0>         0.0000 
     19 C19       -12.3781   12.5016   46.2843 C.ar      1 <0>         0.2200 
     20 C20       -14.7513    6.5374   46.3071 C.ar      1 <0>        -0.2330 
     21 C21       -15.6037    7.1069   47.2357 C.ar      1 <0>         0.1215 
     22 C22       -14.2438    8.6682   46.6023 C.ar      1 <0>         0.3530 
     23 C23       -14.6618    5.1348   45.7484 C.3       1 <0>         0.0740 
     24 C24       -12.3551    7.5596   42.3701 C.3       1 <0>         0.2050 
     25 C25       -12.9628    9.7277   41.0519 C.3       1 <0>         0.2050 
     26 C26       -14.1698   11.3635   39.4331 C.2       1 <0>         0.7000 
     27 C27       -16.7538    6.4793   47.9414 C.2       1 <0>         0.6385 
     28 N1        -15.2644    8.4436   47.4186 N.2       1 <0>        -0.5630 
     29 N2        -17.2151    7.2189   48.9590 N.am      1 <0>        -0.5000 
     30 N3        -13.8965    7.5696   45.9011 N.pl3     1 <0>        -0.0735 
     31 O1        -12.3708    6.1507   42.2472 O.3       1 <0>        -0.6830 
     32 O2        -11.9640   10.3278   41.8569 O.3       1 <0>        -0.6830 
     33 O3        -14.7878   11.7486   40.4510 O.co2     1 <0>        -0.8000 
     34 O4        -14.3879   11.7519   38.2646 O.co2     1 <0>        -0.8000 
     35 O5        -17.2028    5.3720   47.6493 O.2       1 <0>        -0.5000 
     36 F1        -11.7851   13.7147   46.1844 F         1 <0>        -0.2200 
     37 H1        -13.0359    4.4916   47.0457 H         1 <0>         0.0600 
     38 H2        -13.2578    3.4726   45.6305 H         1 <0>         0.0600 
     39 H3        -12.4927    5.0480   45.4670 H         1 <0>         0.0600 
     40 H4        -16.0972    5.4375   44.1351 H         1 <0>         0.0600 
     41 H5        -14.4238    5.5356   43.5958 H         1 <0>         0.0600 
     42 H6        -15.1333    3.9786   43.9650 H         1 <0>         0.0600 
     43 H7        -20.6004    2.2880   50.4623 H         1 <0>         0.1150 
     44 H8        -18.3073    2.8992   51.2111 H         1 <0>         0.1150 
     45 H9        -21.9852    3.9441   49.2252 H         1 <0>         0.1150 
     46 H10       -17.4023    5.1581   50.7330 H         1 <0>         0.1150 
     47 H11       -21.0943    6.1951   48.7369 H         1 <0>         0.1150 
     48 H12       -15.4771   11.0749   46.4669 H         1 <0>         0.1150 
     49 H13       -11.6015    9.1784   46.4758 H         1 <0>         0.1150 
     50 H14       -14.3856   13.3009   46.2922 H         1 <0>         0.1150 
     51 H15       -10.5139   11.4090   46.2935 H         1 <0>         0.1150 
     52 H16       -13.5118    9.0007   43.4979 H         1 <0>         0.0600 
     53 H17       -14.2862    7.4546   43.3231 H         1 <0>         0.0600 
     54 H18       -12.4621    6.4618   44.8623 H         1 <0>         0.0600 
     55 H19       -11.9966    8.0875   45.2486 H         1 <0>         0.0600 
     56 H20       -18.6386    7.8115   50.3474 H         1 <0>         0.0600 
     57 H21       -19.2216    7.7527   48.7012 H         1 <0>         0.0600 
     58 H22       -13.6843    7.7514   40.6852 H         1 <0>         0.0600 
     59 H23       -12.0140    7.9311   40.2555 H         1 <0>         0.0600 
     60 H24       -13.0724    9.6008   38.8864 H         1 <0>         0.0600 
     61 H25       -12.0765   10.9114   39.4531 H         1 <0>         0.0600 
     62 H26       -15.3659    4.5009   46.2843 H         1 <0>         0.0600 
     63 H27       -11.3439    7.8615   42.6456 H         1 <0>         0.0600 
     64 H28       -13.9216    9.9276   41.5309 H         1 <0>         0.0600 
     65 H29       -16.5445    7.7839   49.4591 H         1 <0>         0.3000 
     66 H30       -11.9695    5.7812   43.0203 H         1 <0>         0.4180 
     67 H31       -11.1319    9.9390   41.6313 H         1 <0>         0.4180 
@<TRIPOS>BOND
     1    1   23 1    
     2    1   37 1    
     3    1   38 1    
     4    1   39 1    
     5    2   23 1    
     6    2   40 1    
     7    2   41 1    
     8    2   42 1    
     9    3    4 ar   
    10    3    5 ar   
    11    3   43 1    
    12    4    6 ar   
    13    4   44 1    
    14    5    7 ar   
    15    5   45 1    
    16    6   17 ar   
    17    6   46 1    
    18    7   17 ar   
    19    7   47 1    
    20    8   10 ar   
    21    8   18 ar   
    22    8   48 1    
    23    9   11 ar   
    24    9   18 ar   
    25    9   49 1    
    26   10   19 ar   
    27   10   50 1    
    28   11   19 ar   
    29   11   51 1    
    30   12   13 1    
    31   12   24 1    
    32   12   52 1    
    33   12   53 1    
    34   13   30 1    
    35   13   54 1    
    36   13   55 1    
    37   14   17 1    
    38   14   29 1    
    39   14   56 1    
    40   14   57 1    
    41   15   24 1    
    42   15   25 1    
    43   15   58 1    
    44   15   59 1    
    45   16   25 1    
    46   16   26 1    
    47   16   60 1    
    48   16   61 1    
    49   18   22 1    
    50   19   36 1    
    51   20   21 ar   
    52   20   23 1    
    53   20   30 ar   
    54   21   27 1    
    55   21   28 ar   
    56   22   28 ar   
    57   22   30 ar   
    58   23   62 1    
    59   24   31 1    
    60   24   63 1    
    61   25   32 1    
    62   25   64 1    
    63   26   33 1    
    64   26   34 2    
    65   27   29 am   BACKBONE|DICT|INTERRES
    66   27   35 2    
    67   29   65 1    
    68   31   66 1    
    69   32   67 1    
@<TRIPOS>SUBSTRUCTURE
     1 <0>         1 GROUP             0       ****    0 ROOT    
@<TRIPOS>MOLECULE
hmdh-ligand
67   69    1
SMALL
USER_CHARGES


@<TRIPOS>ATOM
      1 C1        -13.9671    3.9947   46.0346 C.3       1 <0>        -0.1800 
      2 C2        -15.5793    4.8511   44.2835 C.3       1 <0>        -0.1800 
      3 C3        -21.0922    3.8917   49.8418 C.ar      1 <0>        -0.1150 
      4 C4        -21.0891    5.2917   49.6903 C.ar      1 <0>        -0.1150 
      5 C5        -19.9197    3.2251   50.2417 C.ar      1 <0>        -0.1150 
      6 C6        -19.9117    6.0250   49.9303 C.ar      1 <0>        -0.1150 
      7 C7        -18.7431    3.9570   50.4842 C.ar      1 <0>        -0.1150 
      8 C8        -12.2751    9.8299   46.9054 C.ar      1 <0>        -0.1150 
      9 C9        -14.3217   10.7583   45.9489 C.ar      1 <0>        -0.1150 
     10 C10       -11.6647   11.0969   46.8189 C.ar      1 <0>        -0.1150 
     11 C11       -13.7115   12.0231   45.8636 C.ar      1 <0>        -0.1150 
     12 C12       -13.3621    7.6748   43.5781 C.3       1 <0>        -0.1200 
     13 C13       -12.9734    7.0944   44.9349 C.3       1 <0>         0.0025 
     14 C14       -17.4573    6.1476   50.5860 C.3       1 <0>         0.1950 
     15 C15       -12.7285    8.0248   41.1383 C.3       1 <0>        -0.1200 
     16 C16       -13.5960    9.9032   39.7363 C.3       1 <0>        -0.2200 
     17 C17       -18.7323    5.3591   50.3249 C.ar      1 <0>        -0.1150 
     18 C18       -13.6080    9.6608   46.4748 C.ar      1 <0>         0.0000 
     19 C19       -12.3877   12.1931   46.3086 C.ar      1 <0>         0.2200 
     20 C20       -15.0042    6.3122   46.3085 C.ar      1 <0>        -0.2330 
     21 C21       -15.7265    6.9337   47.3096 C.ar      1 <0>         0.1215 
     22 C22       -14.2867    8.3811   46.6161 C.ar      1 <0>         0.3530 
     23 C23       -15.1663    4.9081   45.7618 C.3       1 <0>         0.0740 
     24 C24       -12.2727    7.5063   42.5057 C.3       1 <0>         0.2050 
     25 C25       -13.1138    9.5021   41.1212 C.3       1 <0>         0.2050 
     26 C26       -14.1330   11.3234   39.7058 C.2       1 <0>         0.7000 
     27 C27       -16.8456    6.3803   48.1116 C.2       1 <0>         0.6385 
     28 N1        -15.2796    8.2342   47.4795 N.2       1 <0>        -0.5630 
     29 N2        -16.6939    6.6167   49.4257 N.am      1 <0>        -0.5000 
     30 N3        -14.0367    7.2522   45.9164 N.pl3     1 <0>        -0.0735 
     31 O1        -12.0023    6.1514   42.2418 O.3       1 <0>        -0.6830 
     32 O2        -11.9879   10.2753   41.4419 O.3       1 <0>        -0.6830 
     33 O3        -14.7879   11.7514   40.6797 O.co2     1 <0>        -0.8000 
     34 O4        -13.9759   11.9464   38.6418 O.co2     1 <0>        -0.8000 
     35 O5        -17.7681    5.7514   47.6025 O.2       1 <0>        -0.5000 
     36 F1        -11.8087   13.4129   46.2417 F         1 <0>        -0.2200 
     37 H1        -13.5895    4.1515   47.0418 H         1 <0>         0.0600 
     38 H2        -14.2451    2.9514   45.9252 H         1 <0>         0.0600 
     39 H3        -13.1378    4.1340   45.3492 H         1 <0>         0.0600 
     40 H4        -16.4340    5.4980   44.0836 H         1 <0>         0.0600 
     41 H5        -14.7651    5.1454   43.6240 H         1 <0>         0.0600 
     42 H6        -15.8592    3.8362   43.9995 H         1 <0>         0.0600 
     43 H7        -21.9880    3.3231   49.6468 H         1 <0>         0.1150 
     44 H8        -21.9878    5.8063   49.3881 H         1 <0>         0.1150 
     45 H9        -19.9204    2.1516   50.3560 H         1 <0>         0.1150 
     46 H10       -19.9106    7.0978   49.8042 H         1 <0>         0.1150 
     47 H11       -17.8473    3.4363   50.7891 H         1 <0>         0.1150 
     48 H12       -11.7271    8.9958   47.3197 H         1 <0>         0.1150 
     49 H13       -15.3448   10.6325   45.6245 H         1 <0>         0.1150 
     50 H14       -10.6473   11.2330   47.1562 H         1 <0>         0.1150 
     51 H15       -14.2616   12.8648   45.4695 H         1 <0>         0.1150 
     52 H16       -13.5606    8.7342   43.7312 H         1 <0>         0.0600 
     53 H17       -14.2992    7.2451   43.2276 H         1 <0>         0.0600 
     54 H18       -12.7172    6.0518   44.8286 H         1 <0>         0.0600 
     55 H19       -12.0696    7.5754   45.3072 H         1 <0>         0.0600 
     56 H20       -16.7878    5.5465   51.2025 H         1 <0>         0.0600 
     57 H21       -17.7135    7.0188   51.1897 H         1 <0>         0.0600 
     58 H22       -13.5881    7.4389   40.8070 H         1 <0>         0.0600 
     59 H23       -11.9481    7.8485   40.3960 H         1 <0>         0.0600 
     60 H24       -14.4014    9.2400   39.4418 H         1 <0>         0.0600 
     61 H25       -12.8026    9.7871   38.9962 H         1 <0>         0.0600 
     62 H26       -15.9887    4.4440   46.3047 H         1 <0>         0.0600 
     63 H27       -11.3508    7.9984   42.8188 H         1 <0>         0.0600 
     64 H28       -13.9062    9.6987   41.8424 H         1 <0>         0.0600 
     65 H29       -15.8865    7.1840   49.6435 H         1 <0>         0.3000 
     66 H30       -11.6681    5.6613   43.0127 H         1 <0>         0.4180 
     67 H31       -11.2707    9.9203   40.9089 H         1 <0>         0.4180 
@<TRIPOS>BOND
     1    1   23 1    
     2    1   37 1    
     3    1   38 1    
     4    1   39 1    
     5    2   23 1    
     6    2   40 1    
     7    2   41 1    
     8    2   42 1    
     9    3    4 ar   
    10    3    5 ar   
    11    3   43 1    
    12    4    6 ar   
    13    4   44 1    
    14    5    7 ar   
    15    5   45 1    
    16    6   17 ar   
    17    6   46 1    
    18    7   17 ar   
    19    7   47 1    
    20    8   10 ar   
    21    8   18 ar   
    22    8   48 1    
    23    9   11 ar   
    24    9   18 ar   
    25    9   49 1    
    26   10   19 ar   
    27   10   50 1    
    28   11   19 ar   
    29   11   51 1    
    30   12   13 1    
    31   12   24 1    
    32   12   52 1    
    33   12   53 1    
    34   13   30 1    
    35   13   54 1    
    36   13   55 1    
    37   14   17 1    
    38   14   29 1    
    39   14   56 1    
    40   14   57 1    
    41   15   24 1    
    42   15   25 1    
    43   15   58 1    
    44   15   59 1    
    45   16   25 1    
    46   16   26 1    
    47   16   60 1    
    48   16   61 1    
    49   18   22 1    
    50   19   36 1    
    51   20   21 ar   
    52   20   23 1    
    53   20   30 ar   
    54   21   27 1    
    55   21   28 ar   
    56   22   28 ar   
    57   22   30 ar   
    58   23   62 1    
    59   24   31 1    
    60   24   63 1    
    61   25   32 1    
    62   25   64 1    
    63   26   33 1    
    64   26   34 2    
    65   27   29 am   BACKBONE|DICT|INTERRES
    66   27   35 2    
    67   29   65 1    
    68   31   66 1    
    69   32   67 1    
@<TRIPOS>SUBSTRUCTURE
     1 <0>         1 GROUP             0       ****    0 ROOT    
@<TRIPOS>MOLECULE
hmdh-ligand
67   69    1
SMALL
USER_CHARGES


@<TRIPOS>ATOM
      1 C1        -14.1266    4.1210   45.6439 C.3       1 <0>        -0.1800 
      2 C2        -15.9090    5.0987   44.0937 C.3       1 <0>        -0.1800 
      3 C3        -19.9830    3.1298   50.5637 C.ar      1 <0>        -0.1150 
      4 C4        -18.7133    3.7232   50.6672 C.ar      1 <0>        -0.1150 
      5 C5        -21.0206    3.7960   49.8873 C.ar      1 <0>        -0.1150 
      6 C6        -18.4797    4.9871   50.0904 C.ar      1 <0>        -0.1150 
      7 C7        -20.7896    5.0625   49.3197 C.ar      1 <0>        -0.1150 
      8 C8        -12.0473    8.9012   48.0196 C.ar      1 <0>        -0.1150 
      9 C9        -13.5791   10.6634   47.3020 C.ar      1 <0>        -0.1150 
     10 C10       -11.1931    9.8720   48.5739 C.ar      1 <0>        -0.1150 
     11 C11       -12.7259   11.6347   47.8632 C.ar      1 <0>        -0.1150 
     12 C12       -12.9996    7.0664   43.8286 C.3       1 <0>        -0.1200 
     13 C13       -12.7445    7.0250   45.3479 C.3       1 <0>         0.0025 
     14 C14       -19.2895    7.0321   48.7828 C.3       1 <0>         0.1950 
     15 C15       -12.3055    7.9625   41.5383 C.3       1 <0>        -0.1200 
     16 C16       -13.2087    9.5702   39.7628 C.3       1 <0>        -0.2200 
     17 C17       -19.5165    5.6630   49.4090 C.ar      1 <0>        -0.1150 
     18 C18       -13.2499    9.2919   47.3927 C.ar      1 <0>         0.0000 
     19 C19       -11.5432   11.2341   48.5145 C.ar      1 <0>         0.2200 
     20 C20       -15.1438    6.4497   46.1368 C.ar      1 <0>        -0.2330 
     21 C21       -16.0645    7.1991   46.8455 C.ar      1 <0>         0.1215 
     22 C22       -14.2034    8.2845   46.9391 C.ar      1 <0>         0.3530 
     23 C23       -15.3350    5.0737   45.5196 C.3       1 <0>         0.0740 
     24 C24       -11.8847    7.7293   43.0101 C.3       1 <0>         0.2050 
     25 C25       -12.9232    9.3552   41.2614 C.3       1 <0>         0.2050 
     26 C26       -13.6684   10.9905   39.4204 C.2       1 <0>         0.7000 
     27 C27       -17.5157    6.9554   47.0407 C.2       1 <0>         0.6385 
     28 N1        -15.4540    8.3243   47.3685 N.2       1 <0>        -0.5630 
     29 N2        -17.9357    7.2299   48.2812 N.am      1 <0>        -0.5000 
     30 N3        -13.9769    7.2406   46.1064 N.pl3     1 <0>        -0.0735 
     31 O1        -10.7029    6.9513   43.0426 O.3       1 <0>        -0.6830 
     32 O2        -11.9879   10.3298   41.6482 O.3       1 <0>        -0.6830 
     33 O3        -14.7879   11.3513   39.8430 O.co2     1 <0>        -0.8000 
     34 O4        -12.9521   11.6684   38.6468 O.co2     1 <0>        -0.8000 
     35 O5        -18.2500    6.5514   46.1440 O.2       1 <0>        -0.5000 
     36 F1        -10.7533   12.1542   49.1063 F         1 <0>        -0.2200 
     37 H1        -13.7050    4.1521   46.6449 H         1 <0>         0.0600 
     38 H2        -14.3888    3.0833   45.4440 H         1 <0>         0.0600 
     39 H3        -13.3349    4.3566   44.9408 H         1 <0>         0.0600 
     40 H4        -16.9015    5.5457   44.0724 H         1 <0>         0.0600 
     41 H5        -15.2980    5.6613   43.3955 H         1 <0>         0.0600 
     42 H6        -15.9899    4.0861   43.7007 H         1 <0>         0.0600 
     43 H7        -20.1603    2.1558   50.9961 H         1 <0>         0.1150 
     44 H8        -17.9164    3.2111   51.1885 H         1 <0>         0.1150 
     45 H9        -21.9886    3.3285   49.7992 H         1 <0>         0.1150 
     46 H10       -17.5011    5.4321   50.1831 H         1 <0>         0.1150 
     47 H11       -21.5876    5.5677   48.7974 H         1 <0>         0.1150 
     48 H12       -11.7922    7.8548   48.1082 H         1 <0>         0.1150 
     49 H13       -14.5049   10.9676   46.8351 H         1 <0>         0.1150 
     50 H14       -10.2824    9.5722   49.0697 H         1 <0>         0.1150 
     51 H15       -12.9881   12.6828   47.8212 H         1 <0>         0.1150 
     52 H16       -13.9173    7.6236   43.6389 H         1 <0>         0.0600 
     53 H17       -13.1670    6.0592   43.4515 H         1 <0>         0.0600 
     54 H18       -12.2589    6.1048   45.6682 H         1 <0>         0.0600 
     55 H19       -12.0375    7.8150   45.5923 H         1 <0>         0.0600 
     56 H20       -19.4825    7.7891   49.5433 H         1 <0>         0.0600 
     57 H21       -20.0185    7.2057   47.9871 H         1 <0>         0.0600 
     58 H22       -13.0070    7.1866   41.2283 H         1 <0>         0.0600 
     59 H23       -11.4420    7.8247   40.8888 H         1 <0>         0.0600 
     60 H24       -13.9814    8.8839   39.4414 H         1 <0>         0.0600 
     61 H25       -12.3261    9.3366   39.1665 H         1 <0>         0.0600 
     62 H26       -16.1018    4.5846   46.1217 H         1 <0>         0.0600 
     63 H27       -11.6231    8.6797   43.4736 H         1 <0>         0.0600 
     64 H28       -13.8372    9.4894   41.8423 H         1 <0>         0.0600 
     65 H29       -17.2429    7.5928   48.9203 H         1 <0>         0.3000 
     66 H30       -10.8818    6.0333   43.3173 H         1 <0>         0.4180 
     67 H31       -11.2037   10.0944   41.1543 H         1 <0>         0.4180 
@<TRIPOS>BOND
     1    1   23 1    
     2    1   37 1    
     3    1   38 1    
     4    1   39 1    
     5    2   23 1    
     6    2   40 1    
     7    2   41 1    
     8    2   42 1    
     9    3    4 ar   
    10    3    5 ar   
    11    3   43 1    
    12    4    6 ar   
    13    4   44 1    
    14    5    7 ar   
    15    5   45 1    
    16    6   17 ar   
    17    6   46 1    
    18    7   17 ar   
    19    7   47 1    
    20    8   10 ar   
    21    8   18 ar   
    22    8   48 1    
    23    9   11 ar   
    24    9   18 ar   
    25    9   49 1    
    26   10   19 ar   
    27   10   50 1    
    28   11   19 ar   
    29   11   51 1    
    30   12   13 1    
    31   12   24 1    
    32   12   52 1    
    33   12   53 1    
    34   13   30 1    
    35   13   54 1    
    36   13   55 1    
    37   14   17 1    
    38   14   29 1    
    39   14   56 1    
    40   14   57 1    
    41   15   24 1    
    42   15   25 1    
    43   15   58 1    
    44   15   59 1    
    45   16   25 1    
    46   16   26 1    
    47   16   60 1    
    48   16   61 1    
    49   18   22 1    
    50   19   36 1    
    51   20   21 ar   
    52   20   23 1    
    53   20   30 ar   
    54   21   27 1    
    55   21   28 ar   
    56   22   28 ar   
    57   22   30 ar   
    58   23   62 1    
    59   24   31 1    
    60   24   63 1    
    61   25   32 1    
    62   25   64 1    
    63   26   33 1    
    64   26   34 2    
    65   27   29 am   BACKBONE|DICT|INTERRES
    66   27   35 2    
    67   29   65 1    
    68   31   66 1    
    69   32   67 1    
@<TRIPOS>SUBSTRUCTURE
     1 <0>         1 GROUP             0       ****    0 ROOT    
@<TRIPOS>MOLECULE
hmdh-ligand
67   69    1
SMALL
USER_CHARGES


@<TRIPOS>ATOM
      1 C1        -16.2499    5.2164   44.2172 C.3       1 <0>        -0.1800 
      2 C2        -15.7451    4.4187   46.5581 C.3       1 <0>        -0.1800 
      3 C3        -19.8981    3.1283   50.4883 C.ar      1 <0>        -0.1150 
      4 C4        -18.6508    3.7650   50.6264 C.ar      1 <0>        -0.1150 
      5 C5        -20.9592    3.7897   49.8424 C.ar      1 <0>        -0.1150 
      6 C6        -18.4610    5.0635   50.1151 C.ar      1 <0>        -0.1150 
      7 C7        -20.7723    5.0905   49.3364 C.ar      1 <0>        -0.1150 
      8 C8        -12.7060   10.2511   46.9795 C.ar      1 <0>        -0.1150 
      9 C9        -14.5022   11.2336   45.6337 C.ar      1 <0>        -0.1150 
     10 C10       -12.0110   11.4722   46.9422 C.ar      1 <0>        -0.1150 
     11 C11       -13.8070   12.4502   45.5959 C.ar      1 <0>        -0.1150 
     12 C12       -13.4656    7.2529   43.4959 C.3       1 <0>        -0.1200 
     13 C13       -13.1306    7.5126   44.9725 C.3       1 <0>         0.0025 
     14 C14       -19.3539    7.1500   48.9374 C.3       1 <0>         0.1950 
     15 C15       -12.9606    8.6488   41.3965 C.3       1 <0>        -0.1200 
     16 C16       -13.9009   11.0939   41.3404 C.3       1 <0>        -0.2200 
     17 C17       -19.5230    5.7338   49.4674 C.ar      1 <0>        -0.1150 
     18 C18       -13.9533   10.1357   46.3298 C.ar      1 <0>         0.0000 
     19 C19       -12.5697   12.5670   46.2559 C.ar      1 <0>         0.2200 
     20 C20       -15.3916    6.8405   45.9842 C.ar      1 <0>        -0.2330 
     21 C21       -16.3346    7.5418   46.7137 C.ar      1 <0>         0.1215 
     22 C22       -14.6960    8.8942   46.3651 C.ar      1 <0>         0.3530 
     23 C23       -15.3829    5.4237   45.4689 C.3       1 <0>         0.0740 
     24 C24       -12.4079    7.7054   42.4797 C.3       1 <0>         0.2050 
     25 C25       -12.8451   10.1060   41.8487 C.3       1 <0>         0.2050 
     26 C26       -13.9880   11.2532   39.8190 C.2       1 <0>         0.7000 
     27 C27       -17.7045    7.1238   47.0924 C.2       1 <0>         0.6385 
     28 N1        -15.8729    8.8216   46.9681 N.2       1 <0>        -0.5630 
     29 N2        -18.0470    7.4268   48.3510 N.am      1 <0>        -0.5000 
     30 N3        -14.3454    7.7417   45.7555 N.pl3     1 <0>        -0.0735 
     31 O1        -11.9881    6.5463   41.8425 O.3       1 <0>        -0.6830 
     32 O2        -11.5880   10.5514   41.4427 O.3       1 <0>        -0.6830 
     33 O3        -12.9653   11.3514   39.1048 O.co2     1 <0>        -0.8000 
     34 O4        -15.1519   11.3514   39.3869 O.co2     1 <0>        -0.8000 
     35 O5        -18.4519    6.5512   46.3069 O.2       1 <0>        -0.5000 
     36 F1        -11.9264   13.7505   46.2351 F         1 <0>        -0.2200 
     37 H1        -15.9662    5.8885   43.4097 H         1 <0>         0.0600 
     38 H2        -16.1442    4.1979   43.8431 H         1 <0>         0.0600 
     39 H3        -17.3055    5.3840   44.4122 H         1 <0>         0.0600 
     40 H4        -15.1412    4.6141   47.4368 H         1 <0>         0.0600 
     41 H5        -16.7875    4.4711   46.8578 H         1 <0>         0.0600 
     42 H6        -15.5424    3.4013   46.2298 H         1 <0>         0.0600 
     43 H7        -20.0409    2.1326   50.8785 H         1 <0>         0.1150 
     44 H8        -17.8354    3.2566   51.1209 H         1 <0>         0.1150 
     45 H9        -21.9143    3.2965   49.7320 H         1 <0>         0.1150 
     46 H10       -17.4976    5.5378   50.2314 H         1 <0>         0.1150 
     47 H11       -21.5870    5.5940   48.8400 H         1 <0>         0.1150 
     48 H12       -12.2906    9.4121   47.5186 H         1 <0>         0.1150 
     49 H13       -15.4611   11.1432   45.1423 H         1 <0>         0.1150 
     50 H14       -11.0576   11.5716   47.4418 H         1 <0>         0.1150 
     51 H15       -14.2259   13.2984   45.0722 H         1 <0>         0.1150 
     52 H16       -14.3879    7.7515   43.2502 H         1 <0>         0.0600 
     53 H17       -13.6924    6.1978   43.3633 H         1 <0>         0.0600 
     54 H18       -12.5745    6.6769   45.4010 H         1 <0>         0.0600 
     55 H19       -12.4791    8.3822   45.0534 H         1 <0>         0.0600 
     56 H20       -19.5136    7.8444   49.7613 H         1 <0>         0.0600 
     57 H21       -20.1368    7.3534   48.2041 H         1 <0>         0.0600 
     58 H22       -13.9887    8.3895   41.1604 H         1 <0>         0.0600 
     59 H23       -12.4222    8.5172   40.4540 H         1 <0>         0.0600 
     60 H24       -13.6977   12.0810   41.7557 H         1 <0>         0.0600 
     61 H25       -14.8728   10.8080   41.7399 H         1 <0>         0.0600 
     62 H26       -14.3617    5.1617   45.1974 H         1 <0>         0.0600 
     63 H27       -11.5327    8.1404   42.9656 H         1 <0>         0.0600 
     64 H28       -12.8770   10.1494   42.9392 H         1 <0>         0.0600 
     65 H29       -17.3675    7.9203   48.9115 H         1 <0>         0.3000 
     66 H30       -11.7255    5.9332   42.5310 H         1 <0>         0.4180 
     67 H31       -11.1325    9.9160   40.8676 H         1 <0>         0.4180 
@<TRIPOS>BOND
     1    1   23 1    
     2    1   37 1    
     3    1   38 1    
     4    1   39 1    
     5    2   23 1    
     6    2   40 1    
     7    2   41 1    
     8    2   42 1    
     9    3    4 ar   
    10    3    5 ar   
    11    3   43 1    
    12    4    6 ar   
    13    4   44 1    
    14    5    7 ar   
    15    5   45 1    
    16    6   17 ar   
    17    6   46 1    
    18    7   17 ar   
    19    7   47 1    
    20    8   10 ar   
    21    8   18 ar   
    22    8   48 1    
    23    9   11 ar   
    24    9   18 ar   
    25    9   49 1    
    26   10   19 ar   
    27   10   50 1    
    28   11   19 ar   
    29   11   51 1    
    30   12   13 1    
    31   12   24 1    
    32   12   52 1    
    33   12   53 1    
    34   13   30 1    
    35   13   54 1    
    36   13   55 1    
    37   14   17 1    
    38   14   29 1    
    39   14   56 1    
    40   14   57 1    
    41   15   24 1    
    42   15   25 1    
    43   15   58 1    
    44   15   59 1    
    45   16   25 1    
    46   16   26 1    
    47   16   60 1    
    48   16   61 1    
    49   18   22 1    
    50   19   36 1    
    51   20   21 ar   
    52   20   23 1    
    53   20   30 ar   
    54   21   27 1    
    55   21   28 ar   
    56   22   28 ar   
    57   22   30 ar   
    58   23   62 1    
    59   24   31 1    
    60   24   63 1    
    61   25   32 1    
    62   25   64 1    
    63   26   33 1    
    64   26   34 2    
    65   27   29 am   BACKBONE|DICT|INTERRES
    66   27   35 2    
    67   29   65 1    
    68   31   66 1    
    69   32   67 1    
@<TRIPOS>SUBSTRUCTURE
     1 <0>         1 GROUP             0       ****    0 ROOT    
@<TRIPOS>MOLECULE
hmdh-ligand
67   69    1
SMALL
USER_CHARGES


@<TRIPOS>ATOM
      1 C1        -16.3554    5.7511   44.0421 C.3       1 <0>        -0.1800 
      2 C2        -16.2200    4.4085   46.1906 C.3       1 <0>        -0.1800 
      3 C3        -19.9643    3.1907   50.4015 C.ar      1 <0>        -0.1150 
      4 C4        -18.6831    3.7548   50.5387 C.ar      1 <0>        -0.1150 
      5 C5        -21.0077    3.9504   49.8419 C.ar      1 <0>        -0.1150 
      6 C6        -18.4416    5.0744   50.1081 C.ar      1 <0>        -0.1150 
      7 C7        -20.7692    5.2708   49.4124 C.ar      1 <0>        -0.1150 
      8 C8        -12.3869   10.1277   46.6581 C.ar      1 <0>        -0.1150 
      9 C9        -12.7262    9.2462   48.9075 C.ar      1 <0>        -0.1150 
     10 C10       -11.3490   10.9520   47.1427 C.ar      1 <0>        -0.1150 
     11 C11       -11.6912   10.0698   49.3899 C.ar      1 <0>        -0.1150 
     12 C12       -13.1411    7.2094   43.8627 C.3       1 <0>        -0.1200 
     13 C13       -12.8765    7.0537   45.3738 C.3       1 <0>         0.0025 
     14 C14       -19.2484    7.2766   49.0870 C.3       1 <0>         0.1950 
     15 C15       -12.4315    8.0546   41.5718 C.3       1 <0>        -0.1200 
     16 C16       -13.5219    9.6577   39.8894 C.3       1 <0>        -0.2200 
     17 C17       -19.4834    5.8408   49.5385 C.ar      1 <0>        -0.1150 
     18 C18       -13.0760    9.2660   47.5405 C.ar      1 <0>         0.0000 
     19 C19       -11.0024   10.9225   48.5083 C.ar      1 <0>         0.2200 
     20 C20       -15.3063    6.7626   46.1378 C.ar      1 <0>        -0.2330 
     21 C21       -16.1280    7.4946   46.9760 C.ar      1 <0>         0.1215 
     22 C22       -14.1563    8.3989   47.0770 C.ar      1 <0>         0.3530 
     23 C23       -15.5692    5.5070   45.3401 C.3       1 <0>         0.0740 
     24 C24       -11.9904    7.7944   43.0341 C.3       1 <0>         0.2050 
     25 C25       -13.0231    9.4620   41.3345 C.3       1 <0>         0.2050 
     26 C26       -13.8813   11.1163   39.5725 C.2       1 <0>         0.7000 
     27 C27       -17.5848    7.3086   47.2421 C.2       1 <0>         0.6385 
     28 N1        -15.3819    8.4994   47.5798 N.2       1 <0>        -0.5630 
     29 N2        -17.9241    7.5145   48.5216 N.am      1 <0>        -0.5000 
     30 N3        -14.0609    7.4093   46.1595 N.pl3     1 <0>        -0.0735 
     31 O1        -10.8538    6.9514   43.0418 O.3       1 <0>        -0.6830 
     32 O2        -11.9879   10.3865   41.5614 O.3       1 <0>        -0.6830 
     33 O3        -14.7878   11.6579   40.2425 O.co2     1 <0>        -0.8000 
     34 O4        -13.2639   11.6790   38.6417 O.co2     1 <0>        -0.8000 
     35 O5        -18.3884    6.9513   46.3803 O.2       1 <0>        -0.5000 
     36 F1        -10.0120   11.7160   48.9799 F         1 <0>        -0.2200 
     37 H1        -15.8924    6.5222   43.4280 H         1 <0>         0.0600 
     38 H2        -16.3868    4.8434   43.4423 H         1 <0>         0.0600 
     39 H3        -17.3838    6.0515   44.2294 H         1 <0>         0.0600 
     40 H4        -15.5894    4.1509   47.0417 H         1 <0>         0.0600 
     41 H5        -17.1883    4.7060   46.5790 H         1 <0>         0.0600 
     42 H6        -16.3854    3.5054   45.6104 H         1 <0>         0.0600 
     43 H7        -20.1470    2.1763   50.7243 H         1 <0>         0.1150 
     44 H8        -17.8817    3.1743   50.9732 H         1 <0>         0.1150 
     45 H9        -21.9879    3.5128   49.7338 H         1 <0>         0.1150 
     46 H10       -17.4524    5.4930   50.2245 H         1 <0>         0.1150 
     47 H11       -21.5780    5.8441   48.9837 H         1 <0>         0.1150 
     48 H12       -12.6534   10.1555   45.6115 H         1 <0>         0.1150 
     49 H13       -13.2531    8.5951   49.5897 H         1 <0>         0.1150 
     50 H14       -10.8168   11.6099   46.4719 H         1 <0>         0.1150 
     51 H15       -11.4247   10.0480   50.4363 H         1 <0>         0.1150 
     52 H16       -13.9879    7.8805   43.7282 H         1 <0>         0.0600 
     53 H17       -13.4447    6.2508   43.4413 H         1 <0>         0.0600 
     54 H18       -12.5829    6.0297   45.6085 H         1 <0>         0.0600 
     55 H19       -12.0333    7.6717   45.6756 H         1 <0>         0.0600 
     56 H20       -19.3743    7.9323   49.9489 H         1 <0>         0.0600 
     57 H21       -20.0185    7.5618   48.3697 H         1 <0>         0.0600 
     58 H22       -13.1537    7.2962   41.2659 H         1 <0>         0.0600 
     59 H23       -11.5877    7.9246   40.8959 H         1 <0>         0.0600 
     60 H24       -14.3882    9.0252   39.7199 H         1 <0>         0.0600 
     61 H25       -12.7574    9.3298   39.1826 H         1 <0>         0.0600 
     62 H26       -14.6137    5.0826   45.0363 H         1 <0>         0.0600 
     63 H27       -11.6669    8.7302   43.4904 H         1 <0>         0.0600 
     64 H28       -13.8365    9.6590   42.0346 H         1 <0>         0.0600 
     65 H29       -17.1905    7.8271   49.1414 H         1 <0>         0.3000 
     66 H30       -11.0629    6.0399   43.3126 H         1 <0>         0.4180 
     67 H31       -11.2726   10.0898   40.9968 H         1 <0>         0.4180 
@<TRIPOS>BOND
     1    1   23 1    
     2    1   37 1    
     3    1   38 1    
     4    1   39 1    
     5    2   23 1    
     6    2   40 1    
     7    2   41 1    
     8    2   42 1    
     9    3    4 ar   
    10    3    5 ar   
    11    3   43 1    
    12    4    6 ar   
    13    4   44 1    
    14    5    7 ar   
    15    5   45 1    
    16    6   17 ar   
    17    6   46 1    
    18    7   17 ar   
    19    7   47 1    
    20    8   10 ar   
    21    8   18 ar   
    22    8   48 1    
    23    9   11 ar   
    24    9   18 ar   
    25    9   49 1    
    26   10   19 ar   
    27   10   50 1    
    28   11   19 ar   
    29   11   51 1    
    30   12   13 1    
    31   12   24 1    
    32   12   52 1    
    33   12   53 1    
    34   13   30 1    
    35   13   54 1    
    36   13   55 1    
    37   14   17 1    
    38   14   29 1    
    39   14   56 1    
    40   14   57 1    
    41   15   24 1    
    42   15   25 1    
    43   15   58 1    
    44   15   59 1    
    45   16   25 1    
    46   16   26 1    
    47   16   60 1    
    48   16   61 1    
    49   18   22 1    
    50   19   36 1    
    51   20   21 ar   
    52   20   23 1    
    53   20   30 ar   
    54   21   27 1    
    55   21   28 ar   
    56   22   28 ar   
    57   22   30 ar   
    58   23   62 1    
    59   24   31 1    
    60   24   63 1    
    61   25   32 1    
    62   25   64 1    
    63   26   33 1    
    64   26   34 2    
    65   27   29 am   BACKBONE|DICT|INTERRES
    66   27   35 2    
    67   29   65 1    
    68   31   66 1    
    69   32   67 1    
@<TRIPOS>SUBSTRUCTURE
     1 <0>         1 GROUP             0       ****    0 ROOT    
@<TRIPOS>MOLECULE
hmdh-ligand
67   69    1
SMALL
USER_CHARGES


@<TRIPOS>ATOM
      1 C1        -15.7179    4.6958   44.4506 C.3       1 <0>        -0.1800 
      2 C2        -13.9881    3.9328   46.1686 C.3       1 <0>        -0.1800 
      3 C3        -19.9938    3.8121   51.1557 C.ar      1 <0>        -0.1150 
      4 C4        -18.7994    4.5555   51.2020 C.ar      1 <0>        -0.1150 
      5 C5        -20.9029    4.0132   50.1015 C.ar      1 <0>        -0.1150 
      6 C6        -18.5087    5.4909   50.1908 C.ar      1 <0>        -0.1150 
      7 C7        -20.6135    4.9502   49.0902 C.ar      1 <0>        -0.1150 
      8 C8        -12.2636   10.0596   47.1721 C.ar      1 <0>        -0.1150 
      9 C9        -14.2530   10.8284   45.9778 C.ar      1 <0>        -0.1150 
     10 C10       -11.7306   11.3628   47.1165 C.ar      1 <0>        -0.1150 
     11 C11       -13.7177   12.1260   45.9186 C.ar      1 <0>        -0.1150 
     12 C12       -13.0262    7.7792   43.6314 C.3       1 <0>        -0.1200 
     13 C13       -12.5102    7.3974   45.0180 C.3       1 <0>         0.0025 
     14 C14       -19.1232    6.6595   47.9881 C.3       1 <0>         0.1950 
     15 C15       -12.4361    8.1346   41.1663 C.3       1 <0>        -0.1200 
     16 C16       -13.2772   10.0276   39.7832 C.3       1 <0>        -0.2200 
     17 C17       -19.4072    5.6803   49.1180 C.ar      1 <0>        -0.1150 
     18 C18       -13.5267    9.7939   46.6024 C.ar      1 <0>         0.0000 
     19 C19       -12.4602   12.3937   46.4912 C.ar      1 <0>         0.2200 
     20 C20       -14.5839    6.3808   46.0361 C.ar      1 <0>        -0.2330 
     21 C21       -15.5275    6.8710   46.9161 C.ar      1 <0>         0.1215 
     22 C22       -14.0975    8.4575   46.6216 C.ar      1 <0>         0.3530 
     23 C23       -14.4726    5.0729   45.2738 C.3       1 <0>         0.0740 
     24 C24       -12.0209    7.5320   42.5094 C.3       1 <0>         0.2050 
     25 C25       -13.0690    9.5275   41.2104 C.3       1 <0>         0.2050 
     26 C26       -14.0128   11.3528   39.7326 C.2       1 <0>         0.7000 
     27 C27       -16.7325    6.1761   47.4101 C.2       1 <0>         0.6385 
     28 N1        -15.2152    8.1781   47.2740 N.2       1 <0>        -0.5630 
     29 N2        -17.7266    7.0100   47.7482 N.am      1 <0>        -0.5000 
     30 N3        -13.6477    7.4068   45.9093 N.pl3     1 <0>        -0.0735 
     31 O1        -11.9886    6.1513   42.2418 O.3       1 <0>        -0.6830 
     32 O2        -12.3584   10.4909   41.9762 O.3       1 <0>        -0.6830 
     33 O3        -14.6422   11.7520   40.7381 O.co2     1 <0>        -0.8000 
     34 O4        -13.9842   11.9466   38.6414 O.co2     1 <0>        -0.8000 
     35 O5        -16.8067    4.9548   47.4418 O.2       1 <0>        -0.5000 
     36 F1        -11.9498   13.6436   46.4249 F         1 <0>        -0.2200 
     37 H1        -15.9953    5.5088   43.7786 H         1 <0>         0.0600 
     38 H2        -15.5162    3.8204   43.8329 H         1 <0>         0.0600 
     39 H3        -16.5836    4.4532   45.0606 H         1 <0>         0.0600 
     40 H4        -13.0085    4.1760   46.5790 H         1 <0>         0.0600 
     41 H5        -14.6553    3.7577   47.0091 H         1 <0>         0.0600 
     42 H6        -13.8856    3.0022   45.6110 H         1 <0>         0.0600 
     43 H7        -20.2115    3.0911   51.9300 H         1 <0>         0.1150 
     44 H8        -18.1026    4.4060   52.0122 H         1 <0>         0.1150 
     45 H9        -21.8189    3.4423   50.0640 H         1 <0>         0.1150 
     46 H10       -17.5864    6.0494   50.2430 H         1 <0>         0.1150 
     47 H11       -21.3148    5.0907   48.2822 H         1 <0>         0.1150 
     48 H12       -11.7014    9.2626   47.6417 H         1 <0>         0.1150 
     49 H13       -15.2170   10.6234   45.5344 H         1 <0>         0.1150 
     50 H14       -10.7615   11.5731   47.5472 H         1 <0>         0.1150 
     51 H15       -14.2709   12.9181   45.4345 H         1 <0>         0.1150 
     52 H16       -13.2929    8.8320   43.6976 H         1 <0>         0.0600 
     53 H17       -13.9550    7.2574   43.3932 H         1 <0>         0.0600 
     54 H18       -12.0356    6.4172   45.0409 H         1 <0>         0.0600 
     55 H19       -11.7529    8.1026   45.3600 H         1 <0>         0.0600 
     56 H20       -19.6625    7.5798   48.2093 H         1 <0>         0.0600 
     57 H21       -19.5442    6.2713   47.0594 H         1 <0>         0.0600 
     58 H22       -13.1770    7.4838   40.6954 H         1 <0>         0.0600 
     59 H23       -11.5838    8.1167   40.4930 H         1 <0>         0.0600 
     60 H24       -13.8555    9.2944   39.2268 H         1 <0>         0.0600 
     61 H25       -12.3212   10.1331   39.2692 H         1 <0>         0.0600 
     62 H26       -13.7018    5.1676   44.5123 H         1 <0>         0.0600 
     63 H27       -11.0333    7.8949   42.7961 H         1 <0>         0.0600 
     64 H28       -14.0524    9.4229   41.6719 H         1 <0>         0.0600 
     65 H29       -17.4965    7.9935   47.7056 H         1 <0>         0.3000 
     66 H30       -11.6302    5.6339   42.9843 H         1 <0>         0.4180 
     67 H31       -12.9467   11.2348   42.0319 H         1 <0>         0.4180 
@<TRIPOS>BOND
     1    1   23 1    
     2    1   37 1    
     3    1   38 1    
     4    1   39 1    
     5    2   23 1    
     6    2   40 1    
     7    2   41 1    
     8    2   42 1    
     9    3    4 ar   
    10    3    5 ar   
    11    3   43 1    
    12    4    6 ar   
    13    4   44 1    
    14    5    7 ar   
    15    5   45 1    
    16    6   17 ar   
    17    6   46 1    
    18    7   17 ar   
    19    7   47 1    
    20    8   10 ar   
    21    8   18 ar   
    22    8   48 1    
    23    9   11 ar   
    24    9   18 ar   
    25    9   49 1    
    26   10   19 ar   
    27   10   50 1    
    28   11   19 ar   
    29   11   51 1    
    30   12   13 1    
    31   12   24 1    
    32   12   52 1    
    33   12   53 1    
    34   13   30 1    
    35   13   54 1    
    36   13   55 1    
    37   14   17 1    
    38   14   29 1    
    39   14   56 1    
    40   14   57 1    
    41   15   24 1    
    42   15   25 1    
    43   15   58 1    
    44   15   59 1    
    45   16   25 1    
    46   16   26 1    
    47   16   60 1    
    48   16   61 1    
    49   18   22 1    
    50   19   36 1    
    51   20   21 ar   
    52   20   23 1    
    53   20   30 ar   
    54   21   27 1    
    55   21   28 ar   
    56   22   28 ar   
    57   22   30 ar   
    58   23   62 1    
    59   24   31 1    
    60   24   63 1    
    61   25   32 1    
    62   25   64 1    
    63   26   33 1    
    64   26   34 2    
    65   27   29 am   BACKBONE|DICT|INTERRES
    66   27   35 2    
    67   29   65 1    
    68   31   66 1    
    69   32   67 1    
@<TRIPOS>SUBSTRUCTURE
     1 <0>         1 GROUP             0       ****    0 ROOT    
@<TRIPOS>MOLECULE
hmdh-ligand
67   69    1
SMALL
USER_CHARGES


@<TRIPOS>ATOM
      1 C1        -14.1745    4.3600   46.2827 C.3       1 <0>        -0.1800 
      2 C2        -16.2072    4.9179   44.8545 C.3       1 <0>        -0.1800 
      3 C3        -20.0433    2.9817   50.4826 C.ar      1 <0>        -0.1150 
      4 C4        -18.8085    3.5716   50.8133 C.ar      1 <0>        -0.1150 
      5 C5        -21.0447    3.7480   49.8565 C.ar      1 <0>        -0.1150 
      6 C6        -18.5790    4.9308   50.5240 C.ar      1 <0>        -0.1150 
      7 C7        -20.8155    5.1057   49.5649 C.ar      1 <0>        -0.1150 
      8 C8        -12.7189   10.1076   47.2886 C.ar      1 <0>        -0.1150 
      9 C9        -14.6185   11.0780   46.1010 C.ar      1 <0>        -0.1150 
     10 C10       -12.0237   11.3276   47.1711 C.ar      1 <0>        -0.1150 
     11 C11       -13.9242   12.2954   45.9858 C.ar      1 <0>        -0.1150 
     12 C12       -13.4781    6.9987   44.0188 C.3       1 <0>        -0.1200 
     13 C13       -13.1752    7.2975   45.4952 C.3       1 <0>         0.0025 
     14 C14       -19.3392    7.1687   49.5628 C.3       1 <0>         0.1950 
     15 C15       -13.0224    8.6977   42.1485 C.3       1 <0>        -0.1200 
     16 C16       -14.2579   11.0048   42.1358 C.3       1 <0>        -0.2200 
     17 C17       -19.5814    5.7035   49.8962 C.ar      1 <0>        -0.1150 
     18 C18       -14.0113    9.9755   46.7368 C.ar      1 <0>         0.0000 
     19 C19       -12.6287   12.4192   46.5175 C.ar      1 <0>         0.2200 
     20 C20       -15.4129    6.6220   46.5795 C.ar      1 <0>        -0.2330 
     21 C21       -16.3544    7.3610   47.2688 C.ar      1 <0>         0.1215 
     22 C22       -14.7440    8.7191   46.8207 C.ar      1 <0>         0.3530 
     23 C23       -15.4894    5.1556   46.1945 C.3       1 <0>         0.0740 
     24 C24       -12.4436    7.5941   43.0510 C.3       1 <0>         0.2050 
     25 C25       -13.4019    9.9781   42.9219 C.3       1 <0>         0.2050 
     26 C26       -13.8504   11.2462   40.6724 C.2       1 <0>         0.7000 
     27 C27       -17.6955    6.9227   47.7211 C.2       1 <0>         0.6385 
     28 N1        -15.9176    8.6650   47.4302 N.2       1 <0>        -0.5630 
     29 N2        -18.0625    7.4258   48.9070 N.am      1 <0>        -0.5000 
     30 N3        -14.3868    7.5326   46.2714 N.pl3     1 <0>        -0.0735 
     31 O1        -11.9843    6.5509   42.2415 O.3       1 <0>        -0.6830 
     32 O2        -12.2229   10.5513   43.4414 O.3       1 <0>        -0.6830 
     33 O3        -14.7831   11.3514   39.8411 O.co2     1 <0>        -0.8000 
     34 O4        -12.6351   11.3514   40.3995 O.co2     1 <0>        -0.8000 
     35 O5        -18.3877    6.1516   47.0641 O.2       1 <0>        -0.5000 
     36 F1        -11.9581   13.5856   46.3841 F         1 <0>        -0.2200 
     37 H1        -13.6363    4.5562   47.2092 H         1 <0>         0.0600 
     38 H2        -14.3802    3.2947   46.2426 H         1 <0>         0.0600 
     39 H3        -13.4866    4.5467   45.4661 H         1 <0>         0.0600 
     40 H4        -17.1870    5.3917   44.8434 H         1 <0>         0.0600 
     41 H5        -15.6533    5.3138   44.0075 H         1 <0>         0.0600 
     42 H6        -16.3578    3.8531   44.6762 H         1 <0>         0.0600 
     43 H7        -20.2225    1.9404   50.7032 H         1 <0>         0.1150 
     44 H8        -18.0362    2.9837   51.2883 H         1 <0>         0.1150 
     45 H9        -21.9868    3.2902   49.5948 H         1 <0>         0.1150 
     46 H10       -17.6293    5.3745   50.7815 H         1 <0>         0.1150 
     47 H11       -21.5871    5.6841   49.0790 H         1 <0>         0.1150 
     48 H12       -12.2554    9.2711   47.7914 H         1 <0>         0.1150 
     49 H13       -15.6103   10.9828   45.6836 H         1 <0>         0.1150 
     50 H14       -11.0296   11.4291   47.5809 H         1 <0>         0.1150 
     51 H15       -14.3878   13.1336   45.4880 H         1 <0>         0.1150 
     52 H16       -14.4728    7.3516   43.7531 H         1 <0>         0.0600 
     53 H17       -13.5307    5.9230   43.8748 H         1 <0>         0.0600 
     54 H18       -12.5852    6.5077   45.9578 H         1 <0>         0.0600 
     55 H19       -12.5433    8.1790   45.5524 H         1 <0>         0.0600 
     56 H20       -19.3764    7.7451   50.4875 H         1 <0>         0.0600 
     57 H21       -20.1424    7.5455   48.9287 H         1 <0>         0.0600 
     58 H22       -13.8979    8.3131   41.6228 H         1 <0>         0.0600 
     59 H23       -12.2907    8.9387   41.3745 H         1 <0>         0.0600 
     60 H24       -14.2554   11.9637   42.6559 H         1 <0>         0.0600 
     61 H25       -15.2914   10.6704   42.1591 H         1 <0>         0.0600 
     62 H26       -16.1227    4.6811   46.9454 H         1 <0>         0.0600 
     63 H27       -11.5634    7.9570   43.5804 H         1 <0>         0.0600 
     64 H28       -13.9883    9.6897   43.7901 H         1 <0>         0.0600 
     65 H29       -17.4154    8.0599   49.3531 H         1 <0>         0.3000 
     66 H30       -11.6465    5.8657   42.8278 H         1 <0>         0.4180 
     67 H31       -11.8367    9.9140   44.0254 H         1 <0>         0.4180 
@<TRIPOS>BOND
     1    1   23 1    
     2    1   37 1    
     3    1   38 1    
     4    1   39 1    
     5    2   23 1    
     6    2   40 1    
     7    2   41 1    
     8    2   42 1    
     9    3    4 ar   
    10    3    5 ar   
    11    3   43 1    
    12    4    6 ar   
    13    4   44 1    
    14    5    7 ar   
    15    5   45 1    
    16    6   17 ar   
    17    6   46 1    
    18    7   17 ar   
    19    7   47 1    
    20    8   10 ar   
    21    8   18 ar   
    22    8   48 1    
    23    9   11 ar   
    24    9   18 ar   
    25    9   49 1    
    26   10   19 ar   
    27   10   50 1    
    28   11   19 ar   
    29   11   51 1    
    30   12   13 1    
    31   12   24 1    
    32   12   52 1    
    33   12   53 1    
    34   13   30 1    
    35   13   54 1    
    36   13   55 1    
    37   14   17 1    
    38   14   29 1    
    39   14   56 1    
    40   14   57 1    
    41   15   24 1    
    42   15   25 1    
    43   15   58 1    
    44   15   59 1    
    45   16   25 1    
    46   16   26 1    
    47   16   60 1    
    48   16   61 1    
    49   18   22 1    
    50   19   36 1    
    51   20   21 ar   
    52   20   23 1    
    53   20   30 ar   
    54   21   27 1    
    55   21   28 ar   
    56   22   28 ar   
    57   22   30 ar   
    58   23   62 1    
    59   24   31 1    
    60   24   63 1    
    61   25   32 1    
    62   25   64 1    
    63   26   33 1    
    64   26   34 2    
    65   27   29 am   BACKBONE|DICT|INTERRES
    66   27   35 2    
    67   29   65 1    
    68   31   66 1    
    69   32   67 1    
@<TRIPOS>SUBSTRUCTURE
     1 <0>         1 GROUP             0       ****    0 ROOT    
@<TRIPOS>MOLECULE
hmdh-ligand
67   69    1
SMALL
USER_CHARGES


@<TRIPOS>ATOM
      1 C1        -15.4898    4.3135   46.3702 C.3       1 <0>        -0.1800 
      2 C2        -16.2149    5.2414   44.1281 C.3       1 <0>        -0.1800 
      3 C3        -19.9628    3.0700   50.4058 C.ar      1 <0>        -0.1150 
      4 C4        -18.7456    3.7462   50.6071 C.ar      1 <0>        -0.1150 
      5 C5        -21.0592    3.7480   49.8418 C.ar      1 <0>        -0.1150 
      6 C6        -18.6248    5.1034   50.2501 C.ar      1 <0>        -0.1150 
      7 C7        -20.9395    5.1048   49.4852 C.ar      1 <0>        -0.1150 
      8 C8        -12.9289    9.9597   47.2127 C.ar      1 <0>        -0.1150 
      9 C9        -14.4050   10.9457   45.5372 C.ar      1 <0>        -0.1150 
     10 C10       -12.1049   11.1019   47.1519 C.ar      1 <0>        -0.1150 
     11 C11       -13.5834   12.0858   45.4786 C.ar      1 <0>        -0.1150 
     12 C12       -13.3897    7.2820   43.9035 C.3       1 <0>        -0.1200 
     13 C13       -13.5110    7.0350   45.4169 C.3       1 <0>         0.0025 
     14 C14       -19.6140    7.2615   49.3175 C.3       1 <0>         0.1950 
     15 C15       -12.0803    8.4844   42.0426 C.3       1 <0>        -0.1200 
     16 C16       -13.0134    9.7533   40.0149 C.3       1 <0>        -0.2200 
     17 C17       -19.7240    5.7906   49.6886 C.ar      1 <0>        -0.1150 
     18 C18       -14.0845    9.8817   46.4068 C.ar      1 <0>         0.0000 
     19 C19       -12.4377   12.1664   46.2913 C.ar      1 <0>         0.2200 
     20 C20       -15.9710    6.7988   46.1478 C.ar      1 <0>        -0.2330 
     21 C21       -16.8086    7.6410   46.8489 C.ar      1 <0>         0.1215 
     22 C22       -14.9891    8.7434   46.4876 C.ar      1 <0>         0.3530 
     23 C23       -16.2680    5.4073   45.6507 C.3       1 <0>         0.0740 
     24 C24       -12.1533    8.1118   43.5369 C.3       1 <0>         0.2050 
     25 C25       -13.0319    9.6116   41.5634 C.3       1 <0>         0.2050 
     26 C26       -13.6374   11.0440   39.4663 C.2       1 <0>         0.7000 
     27 C27       -18.1989    7.3659   47.2890 C.2       1 <0>         0.6385 
     28 N1        -16.1884    8.8649   47.0423 N.2       1 <0>        -0.5630 
     29 N2        -18.3883    7.5776   48.5969 N.am      1 <0>        -0.5000 
     30 N3        -14.7665    7.5029   45.9965 N.pl3     1 <0>        -0.0735 
     31 O1        -11.0027    7.3518   43.8791 O.3       1 <0>        -0.6830 
     32 O2        -12.6769   10.8327   42.1975 O.3       1 <0>        -0.6830 
     33 O3        -14.7859   11.3527   39.8540 O.co2     1 <0>        -0.8000 
     34 O4        -12.9720   11.7113   38.6434 O.co2     1 <0>        -0.8000 
     35 O5        -19.0722    6.9513   46.5282 O.2       1 <0>        -0.5000 
     36 F1        -11.6581   13.2708   46.2419 F         1 <0>        -0.2200 
     37 H1        -15.5883    4.4407   47.4406 H         1 <0>         0.0600 
     38 H2        -15.9154    3.3528   46.1129 H         1 <0>         0.0600 
     39 H3        -14.4332    4.2675   46.1224 H         1 <0>         0.0600 
     40 H4        -16.8107    5.9999   43.6201 H         1 <0>         0.0600 
     41 H5        -15.2011    5.2918   43.7449 H         1 <0>         0.0600 
     42 H6        -16.6064    4.2657   43.8424 H         1 <0>         0.0600 
     43 H7        -20.0547    2.0307   50.6808 H         1 <0>         0.1150 
     44 H8        -17.9025    3.2250   51.0377 H         1 <0>         0.1150 
     45 H9        -21.9879    3.2207   49.6794 H         1 <0>         0.1150 
     46 H10       -17.6867    5.6137   50.4159 H         1 <0>         0.1150 
     47 H11       -21.7845    5.6190   49.0542 H         1 <0>         0.1150 
     48 H12       -12.6801    9.1528   47.8862 H         1 <0>         0.1150 
     49 H13       -15.2906   10.8953   44.9215 H         1 <0>         0.1150 
     50 H14       -11.2232   11.1676   47.7723 H         1 <0>         0.1150 
     51 H15       -13.8371   12.9014   44.8179 H         1 <0>         0.1150 
     52 H16       -14.2957    7.7513   43.5301 H         1 <0>         0.0600 
     53 H17       -13.3226    6.3262   43.3836 H         1 <0>         0.0600 
     54 H18       -13.3750    5.9800   45.6233 H         1 <0>         0.0600 
     55 H19       -12.6909    7.5112   45.9533 H         1 <0>         0.0600 
     56 H20       -19.6354    7.8504   50.2348 H         1 <0>         0.0600 
     57 H21       -20.4830    7.5688   48.7327 H         1 <0>         0.0600 
     58 H22       -12.2423    7.5893   41.4412 H         1 <0>         0.0600 
     59 H23       -11.0606    8.7976   41.8436 H         1 <0>         0.0600 
     60 H24       -13.5243    8.9052   39.5600 H         1 <0>         0.0600 
     61 H25       -11.9923    9.7123   39.6500 H         1 <0>         0.0600 
     62 H26       -17.3017    5.1955   45.9077 H         1 <0>         0.0600 
     63 H27       -12.1307    9.0281   44.1281 H         1 <0>         0.0600 
     64 H28       -14.0528    9.3752   41.8629 H         1 <0>         0.0600 
     65 H29       -17.6081    7.9409   49.1248 H         1 <0>         0.3000 
     66 H30       -11.1881    6.4108   43.8417 H         1 <0>         0.4180 
     67 H31       -13.2762   11.4921   41.8725 H         1 <0>         0.4180 
@<TRIPOS>BOND
     1    1   23 1    
     2    1   37 1    
     3    1   38 1    
     4    1   39 1    
     5    2   23 1    
     6    2   40 1    
     7    2   41 1    
     8    2   42 1    
     9    3    4 ar   
    10    3    5 ar   
    11    3   43 1    
    12    4    6 ar   
    13    4   44 1    
    14    5    7 ar   
    15    5   45 1    
    16    6   17 ar   
    17    6   46 1    
    18    7   17 ar   
    19    7   47 1    
    20    8   10 ar   
    21    8   18 ar   
    22    8   48 1    
    23    9   11 ar   
    24    9   18 ar   
    25    9   49 1    
    26   10   19 ar   
    27   10   50 1    
    28   11   19 ar   
    29   11   51 1    
    30   12   13 1    
    31   12   24 1    
    32   12   52 1    
    33   12   53 1    
    34   13   30 1    
    35   13   54 1    
    36   13   55 1    
    37   14   17 1    
    38   14   29 1    
    39   14   56 1    
    40   14   57 1    
    41   15   24 1    
    42   15   25 1    
    43   15   58 1    
    44   15   59 1    
    45   16   25 1    
    46   16   26 1    
    47   16   60 1    
    48   16   61 1    
    49   18   22 1    
    50   19   36 1    
    51   20   21 ar   
    52   20   23 1    
    53   20   30 ar   
    54   21   27 1    
    55   21   28 ar   
    56   22   28 ar   
    57   22   30 ar   
    58   23   62 1    
    59   24   31 1    
    60   24   63 1    
    61   25   32 1    
    62   25   64 1    
    63   26   33 1    
    64   26   34 2    
    65   27   29 am   BACKBONE|DICT|INTERRES
    66   27   35 2    
    67   29   65 1    
    68   31   66 1    
    69   32   67 1    
@<TRIPOS>SUBSTRUCTURE
     1 <0>         1 GROUP             0       ****    0 ROOT    
@<TRIPOS>MOLECULE
hmdh-ligand
67   69    1
SMALL
USER_CHARGES


@<TRIPOS>ATOM
      1 C1        -15.7105    4.6100   44.4727 C.3       1 <0>        -0.1800 
      2 C2        -13.9895    3.9759   46.2255 C.3       1 <0>        -0.1800 
      3 C3        -20.9816    4.1582   49.7541 C.ar      1 <0>        -0.1150 
      4 C4        -19.9279    3.5775   50.4828 C.ar      1 <0>        -0.1150 
      5 C5        -20.7849    5.3849   49.0891 C.ar      1 <0>        -0.1150 
      6 C6        -18.6853    4.2344   50.5595 C.ar      1 <0>        -0.1150 
      7 C7        -19.5433    6.0445   49.1683 C.ar      1 <0>        -0.1150 
      8 C8        -12.1515   10.0656   46.9744 C.ar      1 <0>        -0.1150 
      9 C9        -13.9886   10.8702   45.5808 C.ar      1 <0>        -0.1150 
     10 C10       -11.5810   11.3535   46.9605 C.ar      1 <0>        -0.1150 
     11 C11       -13.4185   12.1557   45.5695 C.ar      1 <0>        -0.1150 
     12 C12       -12.1973    7.9037   43.6368 C.3       1 <0>        -0.1200 
     13 C13       -12.2543    7.2546   45.0300 C.3       1 <0>         0.0025 
     14 C14       -17.1369    6.1682   50.0333 C.3       1 <0>         0.1950 
     15 C15       -12.6005    7.6910   41.0881 C.3       1 <0>        -0.1200 
     16 C16       -13.1903    9.5546   39.4496 C.3       1 <0>        -0.2200 
     17 C17       -18.4844    5.4688   49.9035 C.ar      1 <0>        -0.1150 
     18 C18       -13.3565    9.8235   46.2818 C.ar      1 <0>         0.0000 
     19 C19       -12.2175   12.3976   46.2627 C.ar      1 <0>         0.2200 
     20 C20       -14.5326    6.4157   45.8804 C.ar      1 <0>        -0.2330 
     21 C21       -15.4058    6.9641   46.8077 C.ar      1 <0>         0.1215 
     22 C22       -13.9873    8.5140   46.3109 C.ar      1 <0>         0.3530 
     23 C23       -14.4468    5.0447   45.2389 C.3       1 <0>         0.0740 
     24 C24       -12.8246    7.0875   42.4923 C.3       1 <0>         0.2050 
     25 C25       -13.0042    9.1758   40.9226 C.3       1 <0>         0.2050 
     26 C26       -13.5897   11.0144   39.2553 C.2       1 <0>         0.7000 
     27 C27       -16.4786    6.3050   47.6005 C.2       1 <0>         0.6385 
     28 N1        -15.0987    8.3048   46.9965 N.2       1 <0>        -0.5630 
     29 N2        -16.5840    6.8104   48.8398 N.am      1 <0>        -0.5000 
     30 N3        -13.5435    7.3956   45.7018 N.pl3     1 <0>        -0.0735 
     31 O1        -14.2109    6.9517   42.6853 O.3       1 <0>        -0.6830 
     32 O2        -11.9880   10.0023   41.4421 O.3       1 <0>        -0.6830 
     33 O3        -12.7883   11.7513   38.6419 O.co2     1 <0>        -0.8000 
     34 O4        -14.7391   11.3514   39.6230 O.co2     1 <0>        -0.8000 
     35 O5        -17.1290    5.3515   47.1969 O.2       1 <0>        -0.5000 
     36 F1        -11.6611   13.6315   46.2424 F         1 <0>        -0.2200 
     37 H1        -16.0782    5.4004   43.8190 H         1 <0>         0.0600 
     38 H2        -15.4923    3.7499   43.8401 H         1 <0>         0.0600 
     39 H3        -16.5245    4.3103   45.1260 H         1 <0>         0.0600 
     40 H4        -13.0210    4.2471   46.6415 H         1 <0>         0.0600 
     41 H5        -14.6997    3.8593   47.0412 H         1 <0>         0.0600 
     42 H6        -13.8715    3.0075   45.7399 H         1 <0>         0.0600 
     43 H7        -21.9332    3.6514   49.6882 H         1 <0>         0.1150 
     44 H8        -20.0721    2.6316   50.9847 H         1 <0>         0.1150 
     45 H9        -21.5884    5.8245   48.5176 H         1 <0>         0.1150 
     46 H10       -17.8837    3.7824   51.1270 H         1 <0>         0.1150 
     47 H11       -19.4042    6.9878   48.6602 H         1 <0>         0.1150 
     48 H12       -11.6689    9.2691   47.5223 H         1 <0>         0.1150 
     49 H13       -14.9143   10.6863   45.0543 H         1 <0>         0.1150 
     50 H14       -10.6579   11.5453   47.4863 H         1 <0>         0.1150 
     51 H15       -13.9046   12.9548   45.0307 H         1 <0>         0.1150 
     52 H16       -11.1476    8.0619   43.3917 H         1 <0>         0.0600 
     53 H17       -12.6435    8.8961   43.6864 H         1 <0>         0.0600 
     54 H18       -11.9585    6.2080   45.0093 H         1 <0>         0.0600 
     55 H19       -11.5022    7.7256   45.6620 H         1 <0>         0.0600 
     56 H20       -16.3943    5.4633   50.4105 H         1 <0>         0.0600 
     57 H21       -17.2365    6.9338   50.8036 H         1 <0>         0.0600 
     58 H22       -13.1683    7.0897   40.3760 H         1 <0>         0.0600 
     59 H23       -11.5589    7.5670   40.7952 H         1 <0>         0.0600 
     60 H24       -13.9865    8.9505   39.0420 H         1 <0>         0.0600 
     61 H25       -12.2905    9.3349   38.8725 H         1 <0>         0.0600 
     62 H26       -13.6753    5.0627   44.4727 H         1 <0>         0.0600 
     63 H27       -12.4000    6.0832   42.5098 H         1 <0>         0.0600 
     64 H28       -13.9330    9.3726   41.4602 H         1 <0>         0.0600 
     65 H29       -16.0210    7.6350   48.9996 H         1 <0>         0.3000 
     66 H30       -14.3584    6.6205   43.5594 H         1 <0>         0.4180 
     67 H31       -11.1740    9.7522   40.9789 H         1 <0>         0.4180 
@<TRIPOS>BOND
     1    1   23 1    
     2    1   37 1    
     3    1   38 1    
     4    1   39 1    
     5    2   23 1    
     6    2   40 1    
     7    2   41 1    
     8    2   42 1    
     9    3    4 ar   
    10    3    5 ar   
    11    3   43 1    
    12    4    6 ar   
    13    4   44 1    
    14    5    7 ar   
    15    5   45 1    
    16    6   17 ar   
    17    6   46 1    
    18    7   17 ar   
    19    7   47 1    
    20    8   10 ar   
    21    8   18 ar   
    22    8   48 1    
    23    9   11 ar   
    24    9   18 ar   
    25    9   49 1    
    26   10   19 ar   
    27   10   50 1    
    28   11   19 ar   
    29   11   51 1    
    30   12   13 1    
    31   12   24 1    
    32   12   52 1    
    33   12   53 1    
    34   13   30 1    
    35   13   54 1    
    36   13   55 1    
    37   14   17 1    
    38   14   29 1    
    39   14   56 1    
    40   14   57 1    
    41   15   24 1    
    42   15   25 1    
    43   15   58 1    
    44   15   59 1    
    45   16   25 1    
    46   16   26 1    
    47   16   60 1    
    48   16   61 1    
    49   18   22 1    
    50   19   36 1    
    51   20   21 ar   
    52   20   23 1    
    53   20   30 ar   
    54   21   27 1    
    55   21   28 ar   
    56   22   28 ar   
    57   22   30 ar   
    58   23   62 1    
    59   24   31 1    
    60   24   63 1    
    61   25   32 1    
    62   25   64 1    
    63   26   33 1    
    64   26   34 2    
    65   27   29 am   BACKBONE|DICT|INTERRES
    66   27   35 2    
    67   29   65 1    
    68   31   66 1    
    69   32   67 1    
@<TRIPOS>SUBSTRUCTURE
     1 <0>         1 GROUP             0       ****    0 ROOT    
@<TRIPOS>MOLECULE
hmdh-ligand
67   69    1
SMALL
USER_CHARGES


@<TRIPOS>ATOM
      1 C1        -14.3702    4.2605   45.5728 C.3       1 <0>        -0.1800 
      2 C2        -16.0385    5.5453   44.1260 C.3       1 <0>        -0.1800 
      3 C3        -19.9950    3.1316   50.4676 C.ar      1 <0>        -0.1150 
      4 C4        -18.7210    3.7013   50.6447 C.ar      1 <0>        -0.1150 
      5 C5        -21.0140    3.8723   49.8420 C.ar      1 <0>        -0.1150 
      6 C6        -18.4641    5.0102   50.1927 C.ar      1 <0>        -0.1150 
      7 C7        -20.7593    5.1815   49.3900 C.ar      1 <0>        -0.1150 
      8 C8        -12.5901   10.2758   46.8584 C.ar      1 <0>        -0.1150 
      9 C9        -12.4528    9.0046   48.9354 C.ar      1 <0>        -0.1150 
     10 C10       -11.5702   11.1341   47.3216 C.ar      1 <0>        -0.1150 
     11 C11       -11.4331    9.8602   49.3944 C.ar      1 <0>        -0.1150 
     12 C12       -12.9488    7.1396   44.0164 C.3       1 <0>        -0.1200 
     13 C13       -12.7110    7.0484   45.5357 C.3       1 <0>         0.0025 
     14 C14       -19.2276    7.1781   49.0704 C.3       1 <0>         0.1950 
     15 C15       -12.2169    8.0027   41.7353 C.3       1 <0>        -0.1200 
     16 C16       -13.3630    9.5113   39.9850 C.3       1 <0>        -0.2200 
     17 C17       -19.4815    5.7575   49.5576 C.ar      1 <0>        -0.1150 
     18 C18       -13.0311    9.2060   47.6658 C.ar      1 <0>         0.0000 
     19 C19       -10.9914   10.9251   48.5888 C.ar      1 <0>         0.2200 
     20 C20       -15.1531    6.6073   46.2875 C.ar      1 <0>        -0.2330 
     21 C21       -16.0046    7.3199   47.1084 C.ar      1 <0>         0.1215 
     22 C22       -14.0797    8.3004   47.2121 C.ar      1 <0>         0.3530 
     23 C23       -15.4662    5.3322   45.5368 C.3       1 <0>         0.0740 
     24 C24       -11.8011    7.7579   43.2107 C.3       1 <0>         0.2050 
     25 C25       -12.9214    9.3620   41.4682 C.3       1 <0>         0.2050 
     26 C26       -13.6124   10.9469   39.4873 C.2       1 <0>         0.7000 
     27 C27       -17.4562    7.0646   47.3399 C.2       1 <0>         0.6385 
     28 N1        -15.3096    8.3619   47.7080 N.2       1 <0>        -0.5630 
     29 N2        -17.8783    7.4052   48.5638 N.am      1 <0>        -0.5000 
     30 N3        -13.9338    7.3120   46.2996 N.pl3     1 <0>        -0.0735 
     31 O1        -10.6314    6.9514   43.2660 O.3       1 <0>        -0.6830 
     32 O2        -11.9879   10.3580   41.8075 O.3       1 <0>        -0.6830 
     33 O3        -12.6641   11.6176   39.0445 O.co2     1 <0>        -0.8000 
     34 O4        -14.7883   11.3514   39.4589 O.co2     1 <0>        -0.8000 
     35 O5        -18.1886    6.5527   46.4929 O.2       1 <0>        -0.5000 
     36 F1        -10.0118   11.7452   49.0379 F         1 <0>        -0.2200 
     37 H1        -14.0579    4.0368   46.5936 H         1 <0>         0.0600 
     38 H2        -14.7607    3.3510   45.1385 H         1 <0>         0.0600 
     39 H3        -13.4891    4.5039   44.9889 H         1 <0>         0.0600 
     40 H4        -16.9423    6.1508   44.1540 H         1 <0>         0.0600 
     41 H5        -15.3455    6.0298   43.4435 H         1 <0>         0.0600 
     42 H6        -16.3095    4.5879   43.6850 H         1 <0>         0.0600 
     43 H7        -20.1898    2.1276   50.8117 H         1 <0>         0.1150 
     44 H8        -17.9369    3.1337   51.1260 H         1 <0>         0.1150 
     45 H9        -21.9876    3.4293   49.6999 H         1 <0>         0.1150 
     46 H10       -17.4817    5.4348   50.3395 H         1 <0>         0.1150 
     47 H11       -21.5485    5.7411   48.9084 H         1 <0>         0.1150 
     48 H12       -13.0311   10.4352   45.8862 H         1 <0>         0.1150 
     49 H13       -12.7879    8.1877   49.5565 H         1 <0>         0.1150 
     50 H14       -11.2290   11.9540   46.7093 H         1 <0>         0.1150 
     51 H15       -10.9872    9.7006   50.3643 H         1 <0>         0.1150 
     52 H16       -13.8345    7.7506   43.8400 H         1 <0>         0.0600 
     53 H17       -13.1654    6.1555   43.6076 H         1 <0>         0.0600 
     54 H18       -12.2904    6.0875   45.8276 H         1 <0>         0.0600 
     55 H19       -11.9497    7.7741   45.8159 H         1 <0>         0.0600 
     56 H20       -19.4037    7.8645   49.8984 H         1 <0>         0.0600 
     57 H21       -19.9552    7.4303   48.2982 H         1 <0>         0.0600 
     58 H22       -12.8566    7.1871   41.3964 H         1 <0>         0.0600 
     59 H23       -11.3314    7.9434   41.1038 H         1 <0>         0.0600 
     60 H24       -14.2838    8.9516   39.8379 H         1 <0>         0.0600 
     61 H25       -12.6157    9.0681   39.3259 H         1 <0>         0.0600 
     62 H26       -16.2743    4.8506   46.0874 H         1 <0>         0.0600 
     63 H27       -11.5238    8.7062   43.6698 H         1 <0>         0.0600 
     64 H28       -13.7925    9.4725   42.1147 H         1 <0>         0.0600 
     65 H29       -17.1999    7.8322   49.1784 H         1 <0>         0.3000 
     66 H30       -10.8123    6.0267   43.5346 H         1 <0>         0.4180 
     67 H31       -11.2392   10.1507   41.2528 H         1 <0>         0.4180 
@<TRIPOS>BOND
     1    1   23 1    
     2    1   37 1    
     3    1   38 1    
     4    1   39 1    
     5    2   23 1    
     6    2   40 1    
     7    2   41 1    
     8    2   42 1    
     9    3    4 ar   
    10    3    5 ar   
    11    3   43 1    
    12    4    6 ar   
    13    4   44 1    
    14    5    7 ar   
    15    5   45 1    
    16    6   17 ar   
    17    6   46 1    
    18    7   17 ar   
    19    7   47 1    
    20    8   10 ar   
    21    8   18 ar   
    22    8   48 1    
    23    9   11 ar   
    24    9   18 ar   
    25    9   49 1    
    26   10   19 ar   
    27   10   50 1    
    28   11   19 ar   
    29   11   51 1    
    30   12   13 1    
    31   12   24 1    
    32   12   52 1    
    33   12   53 1    
    34   13   30 1    
    35   13   54 1    
    36   13   55 1    
    37   14   17 1    
    38   14   29 1    
    39   14   56 1    
    40   14   57 1    
    41   15   24 1    
    42   15   25 1    
    43   15   58 1    
    44   15   59 1    
    45   16   25 1    
    46   16   26 1    
    47   16   60 1    
    48   16   61 1    
    49   18   22 1    
    50   19   36 1    
    51   20   21 ar   
    52   20   23 1    
    53   20   30 ar   
    54   21   27 1    
    55   21   28 ar   
    56   22   28 ar   
    57   22   30 ar   
    58   23   62 1    
    59   24   31 1    
    60   24   63 1    
    61   25   32 1    
    62   25   64 1    
    63   26   33 1    
    64   26   34 2    
    65   27   29 am   BACKBONE|DICT|INTERRES
    66   27   35 2    
    67   29   65 1    
    68   31   66 1    
    69   32   67 1    
@<TRIPOS>SUBSTRUCTURE
     1 <0>         1 GROUP             0       ****    0 ROOT    
@<TRIPOS>MOLECULE
hmdh-ligand
67   69    1
SMALL
USER_CHARGES


@<TRIPOS>ATOM
      1 C1        -15.4471    4.3019   46.2470 C.3       1 <0>        -0.1800 
      2 C2        -15.9394    5.3979   43.9992 C.3       1 <0>        -0.1800 
      3 C3        -19.9743    3.1030   50.4277 C.ar      1 <0>        -0.1150 
      4 C4        -18.7513    3.7651   50.6398 C.ar      1 <0>        -0.1150 
      5 C5        -21.0530    3.7901   49.8418 C.ar      1 <0>        -0.1150 
      6 C6        -18.6073    5.1162   50.2697 C.ar      1 <0>        -0.1150 
      7 C7        -20.9085    5.1405   49.4696 C.ar      1 <0>        -0.1150 
      8 C8        -13.5351   10.7140   47.1033 C.ar      1 <0>        -0.1150 
      9 C9        -12.4334    8.7786   48.1036 C.ar      1 <0>        -0.1150 
     10 C10       -12.4673   11.5336   47.5244 C.ar      1 <0>        -0.1150 
     11 C11       -11.3663    9.5955   48.5174 C.ar      1 <0>        -0.1150 
     12 C12       -13.3146    7.8667   44.0403 C.3       1 <0>        -0.1200 
     13 C13       -13.3787    7.0649   45.3548 C.3       1 <0>         0.0025 
     14 C14       -19.5516    7.2764   49.2912 C.3       1 <0>         0.1950 
     15 C15       -11.7184    8.4182   42.0375 C.3       1 <0>        -0.1200 
     16 C16       -13.8629    9.3827   40.8533 C.3       1 <0>        -0.2200 
     17 C17       -19.6873    5.8123   49.6825 C.ar      1 <0>        -0.1150 
     18 C18       -13.5172    9.3325   47.3896 C.ar      1 <0>         0.0000 
     19 C19       -11.3852   10.9718   48.2316 C.ar      1 <0>         0.2200 
     20 C20       -15.7960    6.7899   46.1795 C.ar      1 <0>        -0.2330 
     21 C21       -16.5867    7.5670   47.0026 C.ar      1 <0>         0.1215 
     22 C22       -14.6262    8.4739   46.9969 C.ar      1 <0>         0.3530 
     23 C23       -16.1258    5.4692   45.5238 C.3       1 <0>         0.0740 
     24 C24       -12.1378    7.4358   43.1565 C.3       1 <0>         0.2050 
     25 C25       -12.5662    8.5762   40.7444 C.3       1 <0>         0.2050 
     26 C26       -13.6546   10.8967   40.7443 C.2       1 <0>         0.7000 
     27 C27       -18.0162    7.3506   47.3477 C.2       1 <0>         0.6385 
     28 N1        -15.8411    8.6243   47.5083 N.2       1 <0>        -0.5630 
     29 N2        -18.2854    7.5787   48.6386 N.am      1 <0>        -0.5000 
     30 N3        -14.5498    7.4309   46.1421 N.pl3     1 <0>        -0.0735 
     31 O1        -12.3879    6.1514   42.6409 O.3       1 <0>        -0.6830 
     32 O2        -12.7879    7.3515   40.0793 O.3       1 <0>        -0.6830 
     33 O3        -14.3879   11.5161   39.9363 O.co2     1 <0>        -0.8000 
     34 O4        -12.7880   11.4119   41.4839 O.co2     1 <0>        -0.8000 
     35 O5        -18.8514    6.9514   46.5369 O.2       1 <0>        -0.5000 
     36 F1        -10.3635   11.7514   48.6487 F         1 <0>        -0.2200 
     37 H1        -15.7165    4.3115   47.3020 H         1 <0>         0.0600 
     38 H2        -15.7794    3.3515   45.8418 H         1 <0>         0.0600 
     39 H3        -14.3606    4.3275   46.1808 H         1 <0>         0.0600 
     40 H4        -16.5332    6.1515   43.4845 H         1 <0>         0.0600 
     41 H5        -14.9063    5.5085   43.6821 H         1 <0>         0.0600 
     42 H6        -16.2643    4.4262   43.6316 H         1 <0>         0.0600 
     43 H7        -20.0849    2.0684   50.7128 H         1 <0>         0.1150 
     44 H8        -17.9214    3.2371   51.0873 H         1 <0>         0.1150 
     45 H9        -21.9871    3.2764   49.6715 H         1 <0>         0.1150 
     46 H10       -17.6646    5.6142   50.4432 H         1 <0>         0.1150 
     47 H11       -21.7385    5.6610   49.0179 H         1 <0>         0.1150 
     48 H12       -14.3698   11.1445   46.5693 H         1 <0>         0.1150 
     49 H13       -12.4200    7.7240   48.3382 H         1 <0>         0.1150 
     50 H14       -12.4802   12.5932   47.3139 H         1 <0>         0.1150 
     51 H15       -10.5336    9.1684   49.0572 H         1 <0>         0.1150 
     52 H16       -13.2304    8.9288   44.2729 H         1 <0>         0.0600 
     53 H17       -14.2440    7.7406   43.4906 H         1 <0>         0.0600 
     54 H18       -13.3826    5.9966   45.1596 H         1 <0>         0.0600 
     55 H19       -12.4761    7.2353   45.9384 H         1 <0>         0.0600 
     56 H20       -19.6277    7.8834   50.1936 H         1 <0>         0.0600 
     57 H21       -20.3827    7.5713   48.6487 H         1 <0>         0.0600 
     58 H22       -10.7232    8.1086   41.7319 H         1 <0>         0.0600 
     59 H23       -11.5879    9.3993   42.4858 H         1 <0>         0.0600 
     60 H24       -14.3879    9.1507   41.7729 H         1 <0>         0.0600 
     61 H25       -14.4750    9.0969   40.0012 H         1 <0>         0.0600 
     62 H26       -17.1879    5.2877   45.6670 H         1 <0>         0.0600 
     63 H27       -11.2677    7.3377   43.8077 H         1 <0>         0.0600 
     64 H28       -11.9879    9.1298   40.0143 H         1 <0>         0.0600 
     65 H29       -17.5269    7.9273   49.2074 H         1 <0>         0.3000 
     66 H30       -11.8727    5.5053   43.1588 H         1 <0>         0.4180 
     67 H31       -13.2388    7.5311   39.2683 H         1 <0>         0.4180 
@<TRIPOS>BOND
     1    1   23 1    
     2    1   37 1    
     3    1   38 1    
     4    1   39 1    
     5    2   23 1    
     6    2   40 1    
     7    2   41 1    
     8    2   42 1    
     9    3    4 ar   
    10    3    5 ar   
    11    3   43 1    
    12    4    6 ar   
    13    4   44 1    
    14    5    7 ar   
    15    5   45 1    
    16    6   17 ar   
    17    6   46 1    
    18    7   17 ar   
    19    7   47 1    
    20    8   10 ar   
    21    8   18 ar   
    22    8   48 1    
    23    9   11 ar   
    24    9   18 ar   
    25    9   49 1    
    26   10   19 ar   
    27   10   50 1    
    28   11   19 ar   
    29   11   51 1    
    30   12   13 1    
    31   12   24 1    
    32   12   52 1    
    33   12   53 1    
    34   13   30 1    
    35   13   54 1    
    36   13   55 1    
    37   14   17 1    
    38   14   29 1    
    39   14   56 1    
    40   14   57 1    
    41   15   24 1    
    42   15   25 1    
    43   15   58 1    
    44   15   59 1    
    45   16   25 1    
    46   16   26 1    
    47   16   60 1    
    48   16   61 1    
    49   18   22 1    
    50   19   36 1    
    51   20   21 ar   
    52   20   23 1    
    53   20   30 ar   
    54   21   27 1    
    55   21   28 ar   
    56   22   28 ar   
    57   22   30 ar   
    58   23   62 1    
    59   24   31 1    
    60   24   63 1    
    61   25   32 1    
    62   25   64 1    
    63   26   33 1    
    64   26   34 2    
    65   27   29 am   BACKBONE|DICT|INTERRES
    66   27   35 2    
    67   29   65 1    
    68   31   66 1    
    69   32   67 1    
@<TRIPOS>SUBSTRUCTURE
     1 <0>         1 GROUP             0       ****    0 ROOT    
@<TRIPOS>MOLECULE
hmdh-ligand
67   69    1
SMALL
USER_CHARGES


@<TRIPOS>ATOM
      1 C1        -14.2281    3.9841   45.9571 C.3       1 <0>        -0.1800 
      2 C2        -15.4543    4.8731   43.9197 C.3       1 <0>        -0.1800 
      3 C3        -20.9822    8.8501   51.1380 C.ar      1 <0>        -0.1150 
      4 C4        -19.7039    9.1665   50.6421 C.ar      1 <0>        -0.1150 
      5 C5        -21.4538    7.5260   51.0641 C.ar      1 <0>        -0.1150 
      6 C6        -18.9003    8.1610   50.0692 C.ar      1 <0>        -0.1150 
      7 C7        -20.6544    6.5217   50.4847 C.ar      1 <0>        -0.1150 
      8 C8        -12.3955    9.7557   46.7703 C.ar      1 <0>        -0.1150 
      9 C9        -14.4622   10.8310   46.0449 C.ar      1 <0>        -0.1150 
     10 C10       -11.7384   11.0023   46.7311 C.ar      1 <0>        -0.1150 
     11 C11       -13.8084   12.0755   46.0158 C.ar      1 <0>        -0.1150 
     12 C12       -13.4313    7.7320   43.4547 C.3       1 <0>        -0.1200 
     13 C13       -13.0751    7.1158   44.8132 C.3       1 <0>         0.0025 
     14 C14       -18.5331    5.7081   49.3789 C.3       1 <0>         0.1950 
     15 C15       -12.7910    8.0135   40.9571 C.3       1 <0>        -0.1200 
     16 C16       -13.9433   10.3116   41.4061 C.3       1 <0>        -0.2200 
     17 C17       -19.3731    6.8298   49.9810 C.ar      1 <0>        -0.1150 
     18 C18       -13.7591    9.6643   46.4140 C.ar      1 <0>         0.0000 
     19 C19       -12.4449   12.1597   46.3488 C.ar      1 <0>         0.2200 
     20 C20       -15.2049    6.3455   46.0104 C.ar      1 <0>        -0.2330 
     21 C21       -16.0736    7.0066   46.8526 C.ar      1 <0>         0.1215 
     22 C22       -14.4784    8.3951   46.4396 C.ar      1 <0>         0.3530 
     23 C23       -15.3179    4.9421   45.4483 C.3       1 <0>         0.0740 
     24 C24       -12.3632    7.5380   42.3681 C.3       1 <0>         0.2050 
     25 C25       -12.7883    9.5380   40.7235 C.3       1 <0>         0.2050 
     26 C26       -13.4750   11.2193   42.5382 C.2       1 <0>         0.7000 
     27 C27       -17.3864    6.5466   47.3457 C.2       1 <0>         0.6385 
     28 N1        -15.5995    8.2741   47.1352 N.2       1 <0>        -0.5630 
     29 N2        -17.3670    6.1502   48.6237 N.am      1 <0>        -0.5000 
     30 N3        -14.1843    7.2723   45.7413 N.pl3     1 <0>        -0.0735 
     31 O1        -12.1440    6.1514   42.2418 O.3       1 <0>        -0.6830 
     32 O2        -12.7879    9.8160   39.3360 O.3       1 <0>        -0.6830 
     33 O3        -14.2427   12.1513   42.8496 O.co2     1 <0>        -0.8000 
     34 O4        -12.3880   10.9514   43.1029 O.co2     1 <0>        -0.8000 
     35 O5        -18.3885    6.5514   46.6339 O.2       1 <0>        -0.5000 
     36 F1        -11.8147   13.3553   46.2935 F         1 <0>        -0.2200 
     37 H1        -14.2374    3.9378   47.0417 H         1 <0>         0.0600 
     38 H2        -14.3870    2.9740   45.5848 H         1 <0>         0.0600 
     39 H3        -13.2199    4.2599   45.6601 H         1 <0>         0.0600 
     40 H4        -16.2319    5.5474   43.5597 H         1 <0>         0.0600 
     41 H5        -14.5249    5.1210   43.4117 H         1 <0>         0.0600 
     42 H6        -15.7183    3.8640   43.6030 H         1 <0>         0.0600 
     43 H7        -21.5944    9.6221   51.5810 H         1 <0>         0.1150 
     44 H8        -19.3394   10.1824   50.7001 H         1 <0>         0.1150 
     45 H9        -22.4286    7.2777   51.4543 H         1 <0>         0.1150 
     46 H10       -17.9217    8.4297   49.6997 H         1 <0>         0.1150 
     47 H11       -21.0262    5.5088   50.4329 H         1 <0>         0.1150 
     48 H12       -11.8512    8.8745   47.0771 H         1 <0>         0.1150 
     49 H13       -15.5059   10.7712   45.7712 H         1 <0>         0.1150 
     50 H14       -10.6930   11.0730   46.9940 H         1 <0>         0.1150 
     51 H15       -14.3472   12.9601   45.7123 H         1 <0>         0.1150 
     52 H16       -13.5905    8.7873   43.6331 H         1 <0>         0.0600 
     53 H17       -14.3868    7.3472   43.1003 H         1 <0>         0.0600 
     54 H18       -12.8327    6.0659   44.7071 H         1 <0>         0.0600 
     55 H19       -12.1788    7.5791   45.2207 H         1 <0>         0.0600 
     56 H20       -19.1670    5.0828   48.7472 H         1 <0>         0.0600 
     57 H21       -18.1857    5.0692   50.1912 H         1 <0>         0.0600 
     58 H22       -13.7631    7.5952   40.6938 H         1 <0>         0.0600 
     59 H23       -12.0878    7.5830   40.2421 H         1 <0>         0.0600 
     60 H24       -14.6775    9.6379   41.8413 H         1 <0>         0.0600 
     61 H25       -14.4732   10.9336   40.6836 H         1 <0>         0.0600 
     62 H26       -16.2514    4.5233   45.8245 H         1 <0>         0.0600 
     63 H27       -11.4278    8.0160   42.6622 H         1 <0>         0.0600 
     64 H28       -11.8233    9.9159   41.0510 H         1 <0>         0.0600 
     65 H29       -16.4876    6.2132   49.1155 H         1 <0>         0.3000 
     66 H30       -11.7585    5.7754   43.0412 H         1 <0>         0.4180 
     67 H31       -11.9542    9.5017   39.0075 H         1 <0>         0.4180 
@<TRIPOS>BOND
     1    1   23 1    
     2    1   37 1    
     3    1   38 1    
     4    1   39 1    
     5    2   23 1    
     6    2   40 1    
     7    2   41 1    
     8    2   42 1    
     9    3    4 ar   
    10    3    5 ar   
    11    3   43 1    
    12    4    6 ar   
    13    4   44 1    
    14    5    7 ar   
    15    5   45 1    
    16    6   17 ar   
    17    6   46 1    
    18    7   17 ar   
    19    7   47 1    
    20    8   10 ar   
    21    8   18 ar   
    22    8   48 1    
    23    9   11 ar   
    24    9   18 ar   
    25    9   49 1    
    26   10   19 ar   
    27   10   50 1    
    28   11   19 ar   
    29   11   51 1    
    30   12   13 1    
    31   12   24 1    
    32   12   52 1    
    33   12   53 1    
    34   13   30 1    
    35   13   54 1    
    36   13   55 1    
    37   14   17 1    
    38   14   29 1    
    39   14   56 1    
    40   14   57 1    
    41   15   24 1    
    42   15   25 1    
    43   15   58 1    
    44   15   59 1    
    45   16   25 1    
    46   16   26 1    
    47   16   60 1    
    48   16   61 1    
    49   18   22 1    
    50   19   36 1    
    51   20   21 ar   
    52   20   23 1    
    53   20   30 ar   
    54   21   27 1    
    55   21   28 ar   
    56   22   28 ar   
    57   22   30 ar   
    58   23   62 1    
    59   24   31 1    
    60   24   63 1    
    61   25   32 1    
    62   25   64 1    
    63   26   33 1    
    64   26   34 2    
    65   27   29 am   BACKBONE|DICT|INTERRES
    66   27   35 2    
    67   29   65 1    
    68   31   66 1    
    69   32   67 1    
@<TRIPOS>SUBSTRUCTURE
     1 <0>         1 GROUP             0       ****    0 ROOT    
@<TRIPOS>MOLECULE
hmdh-ligand
67   69    1
SMALL
USER_CHARGES


@<TRIPOS>ATOM
      1 C1        -15.2826    4.9723   43.8507 C.3       1 <0>        -0.1800 
      2 C2        -14.6608    4.1386   46.1878 C.3       1 <0>        -0.1800 
      3 C3        -19.6354    3.5572   50.6437 C.ar      1 <0>        -0.1150 
      4 C4        -18.3935    4.2201   50.6419 C.ar      1 <0>        -0.1150 
      5 C5        -20.6875    4.0375   49.8418 C.ar      1 <0>        -0.1150 
      6 C6        -18.1967    5.3514   49.8255 C.ar      1 <0>        -0.1150 
      7 C7        -20.4931    5.1726   49.0315 C.ar      1 <0>        -0.1150 
      8 C8        -14.1430   11.1176   45.6500 C.ar      1 <0>        -0.1150 
      9 C9        -12.2577   10.1850   46.8894 C.ar      1 <0>        -0.1150 
     10 C10       -13.5240   12.3798   45.6573 C.ar      1 <0>        -0.1150 
     11 C11       -11.6387   11.4502   46.8957 C.ar      1 <0>        -0.1150 
     12 C12       -11.3811    6.6547   46.0324 C.3       1 <0>        -0.1200 
     13 C13       -12.3178    7.4278   45.0822 C.3       1 <0>         0.0025 
     14 C14       -19.0607    7.0449   48.1080 C.3       1 <0>         0.1950 
     15 C15        -9.0139    5.6861   46.2718 C.3       1 <0>        -0.1200 
     16 C16        -6.9255    4.1399   46.0085 C.3       1 <0>        -0.2200 
     17 C17       -19.2428    5.8267   49.0036 C.ar      1 <0>        -0.1150 
     18 C18       -13.5078   10.0134   46.2557 C.ar      1 <0>         0.0000 
     19 C19       -12.2707   12.5450   46.2751 C.ar      1 <0>         0.2200 
     20 C20       -14.6589    6.6172   45.6972 C.ar      1 <0>        -0.2330 
     21 C21       -15.7260    7.2219   46.3398 C.ar      1 <0>         0.1215 
     22 C22       -14.1595    8.7120   46.1949 C.ar      1 <0>         0.3530 
     23 C23       -14.4712    5.2290   45.1310 C.3       1 <0>         0.0740 
     24 C24        -9.9193    6.7166   45.5688 C.3       1 <0>         0.2050 
     25 C25        -7.6427    5.4504   45.5866 C.3       1 <0>         0.2050 
     26 C26        -6.3660    4.1476   47.4372 C.2       1 <0>         0.7000 
     27 C27       -17.0788    6.6741   46.6418 C.2       1 <0>         0.6385 
     28 N1        -15.3949    8.5377   46.6418 N.2       1 <0>        -0.5630 
     29 N2        -17.6937    7.2928   47.6597 N.am      1 <0>        -0.5000 
     30 N3        -13.6515    7.5873   45.6475 N.pl3     1 <0>        -0.0735 
     31 O1         -9.4661    8.0251   45.8418 O.3       1 <0>        -0.6830 
     32 O2         -6.7909    6.5514   45.8418 O.3       1 <0>        -0.6830 
     33 O3         -7.1149    4.5514   48.3531 O.co2     1 <0>        -0.8000 
     34 O4         -5.1883    3.7594   47.5928 O.co2     1 <0>        -0.8000 
     35 O5        -17.5879    5.7539   46.0100 O.2       1 <0>        -0.5000 
     36 F1        -11.6579   13.7513   46.2419 F         1 <0>        -0.2200 
     37 H1        -15.0393    5.7077   43.0832 H         1 <0>         0.0600 
     38 H2        -15.0531    3.9884   43.4419 H         1 <0>         0.0600 
     39 H3        -16.3565    5.0114   44.0128 H         1 <0>         0.0600 
     40 H4        -14.0080    4.3200   47.0417 H         1 <0>         0.0600 
     41 H5        -15.6851    4.0786   46.5514 H         1 <0>         0.0600 
     42 H6        -14.3879    3.1659   45.7815 H         1 <0>         0.0600 
     43 H7        -19.7809    2.6846   51.2635 H         1 <0>         0.1150 
     44 H8        -17.5879    3.8566   51.2633 H         1 <0>         0.1150 
     45 H9        -21.6412    3.5310   49.8444 H         1 <0>         0.1150 
     46 H10       -17.2357    5.8445   49.8343 H         1 <0>         0.1150 
     47 H11       -21.3052    5.5313   48.4165 H         1 <0>         0.1150 
     48 H12       -15.1022   10.9923   45.1681 H         1 <0>         0.1150 
     49 H13       -11.7648    9.3479   47.3614 H         1 <0>         0.1150 
     50 H14       -14.0069   13.2184   45.1797 H         1 <0>         0.1150 
     51 H15       -10.6747   11.5800   47.3661 H         1 <0>         0.1150 
     52 H16       -11.6988    5.6138   46.0820 H         1 <0>         0.0600 
     53 H17       -11.4641    7.0340   47.0515 H         1 <0>         0.0600 
     54 H18       -11.9056    8.4092   44.8521 H         1 <0>         0.0600 
     55 H19       -12.3920    6.9213   44.1196 H         1 <0>         0.0600 
     56 H20       -19.3896    7.9178   48.6705 H         1 <0>         0.0600 
     57 H21       -19.7196    6.9677   47.2407 H         1 <0>         0.0600 
     58 H22        -9.5430    4.7349   46.2789 H         1 <0>         0.0600 
     59 H23        -8.8984    5.9581   47.3206 H         1 <0>         0.0600 
     60 H24        -6.0955    3.9607   45.3235 H         1 <0>         0.0600 
     61 H25        -7.5879    3.2828   45.8990 H         1 <0>         0.0600 
     62 H26       -13.4392    5.1079   44.8121 H         1 <0>         0.0600 
     63 H27        -9.8859    6.5514   44.4913 H         1 <0>         0.0600 
     64 H28        -7.8007    5.3988   44.5083 H         1 <0>         0.0600 
     65 H29       -17.1804    8.0453   48.0975 H         1 <0>         0.3000 
     66 H30        -9.1460    8.0740   46.7390 H         1 <0>         0.4180 
     67 H31        -6.6410    6.5816   46.7760 H         1 <0>         0.4180 
@<TRIPOS>BOND
     1    1   23 1    
     2    1   37 1    
     3    1   38 1    
     4    1   39 1    
     5    2   23 1    
     6    2   40 1    
     7    2   41 1    
     8    2   42 1    
     9    3    4 ar   
    10    3    5 ar   
    11    3   43 1    
    12    4    6 ar   
    13    4   44 1    
    14    5    7 ar   
    15    5   45 1    
    16    6   17 ar   
    17    6   46 1    
    18    7   17 ar   
    19    7   47 1    
    20    8   10 ar   
    21    8   18 ar   
    22    8   48 1    
    23    9   11 ar   
    24    9   18 ar   
    25    9   49 1    
    26   10   19 ar   
    27   10   50 1    
    28   11   19 ar   
    29   11   51 1    
    30   12   13 1    
    31   12   24 1    
    32   12   52 1    
    33   12   53 1    
    34   13   30 1    
    35   13   54 1    
    36   13   55 1    
    37   14   17 1    
    38   14   29 1    
    39   14   56 1    
    40   14   57 1    
    41   15   24 1    
    42   15   25 1    
    43   15   58 1    
    44   15   59 1    
    45   16   25 1    
    46   16   26 1    
    47   16   60 1    
    48   16   61 1    
    49   18   22 1    
    50   19   36 1    
    51   20   21 ar   
    52   20   23 1    
    53   20   30 ar   
    54   21   27 1    
    55   21   28 ar   
    56   22   28 ar   
    57   22   30 ar   
    58   23   62 1    
    59   24   31 1    
    60   24   63 1    
    61   25   32 1    
    62   25   64 1    
    63   26   33 1    
    64   26   34 2    
    65   27   29 am   BACKBONE|DICT|INTERRES
    66   27   35 2    
    67   29   65 1    
    68   31   66 1    
    69   32   67 1    
@<TRIPOS>SUBSTRUCTURE
     1 <0>         1 GROUP             0       ****    0 ROOT    
@<TRIPOS>MOLECULE
hmdh-ligand
67   69    1
SMALL
USER_CHARGES


@<TRIPOS>ATOM
      1 C1        -14.4940    4.8265   43.6787 C.3       1 <0>        -0.1800 
      2 C2        -14.3902    3.8997   46.0474 C.3       1 <0>        -0.1800 
      3 C3        -19.6960    3.9798   50.7454 C.ar      1 <0>        -0.1150 
      4 C4        -18.3891    4.4673   50.5560 C.ar      1 <0>        -0.1150 
      5 C5        -20.7388    4.4176   49.9053 C.ar      1 <0>        -0.1150 
      6 C6        -18.1219    5.3815   49.5179 C.ar      1 <0>        -0.1150 
      7 C7        -20.4724    5.3389   48.8730 C.ar      1 <0>        -0.1150 
      8 C8        -12.0976   10.1060   46.9517 C.ar      1 <0>        -0.1150 
      9 C9        -14.0210   10.9619   45.7176 C.ar      1 <0>        -0.1150 
     10 C10       -11.5891   11.4154   47.0605 C.ar      1 <0>        -0.1150 
     11 C11       -13.5118   12.2670   45.8265 C.ar      1 <0>        -0.1150 
     12 C12       -11.0121    6.5946   46.2431 C.3       1 <0>        -0.1200 
     13 C13       -11.9066    7.3134   45.2131 C.3       1 <0>         0.0025 
     14 C14       -18.9138    6.7972   47.5248 C.3       1 <0>         0.1950 
     15 C15        -8.7530    5.4687   46.6221 C.3       1 <0>        -0.1200 
     16 C16        -6.7879    3.7794   46.6891 C.3       1 <0>        -0.2200 
     17 C17       -19.1605    5.8145   48.6612 C.ar      1 <0>        -0.1150 
     18 C18       -13.3165    9.8746   46.2777 C.ar      1 <0>         0.0000 
     19 C19       -12.2976   12.4944   46.4988 C.ar      1 <0>         0.2200 
     20 C20       -14.2569    6.4160   45.6406 C.ar      1 <0>        -0.2330 
     21 C21       -15.4102    6.9921   46.1378 C.ar      1 <0>         0.1215 
     22 C22       -13.8882    8.5388   46.1509 C.ar      1 <0>         0.3530 
     23 C23       -13.9699    5.0324   45.1067 C.3       1 <0>         0.0740 
     24 C24        -9.5571    6.4679   45.7686 C.3       1 <0>         0.2050 
     25 C25        -7.3598    5.0824   46.0660 C.3       1 <0>         0.2050 
     26 C26        -6.3966    3.8999   48.1681 C.2       1 <0>         0.7000 
     27 C27       -16.7758    6.4161   46.2658 C.2       1 <0>         0.6385 
     28 N1        -15.1552    8.3177   46.4658 N.2       1 <0>        -0.5630 
     29 N2        -17.5139    7.0411   47.1959 N.am      1 <0>        -0.5000 
     30 N3        -13.2868    7.4289   45.6677 N.pl3     1 <0>        -0.0735 
     31 O1         -8.9793    7.7514   45.8417 O.3       1 <0>        -0.6830 
     32 O2         -6.4436    6.1512   46.2416 O.3       1 <0>        -0.6830 
     33 O3         -7.3054    4.1515   48.9894 O.co2     1 <0>        -0.8000 
     34 O4         -5.1879    3.7657   48.4607 O.co2     1 <0>        -0.8000 
     35 O5        -17.1879    5.4914   45.5697 O.2       1 <0>        -0.5000 
     36 F1        -11.8048   13.7499   46.5856 F         1 <0>        -0.2200 
     37 H1        -14.0892    5.5834   43.0055 H         1 <0>         0.0600 
     38 H2        -14.1891    3.8529   43.2940 H         1 <0>         0.0600 
     39 H3        -15.5806    4.8808   43.6268 H         1 <0>         0.0600 
     40 H4        -13.9883    4.0759   47.0413 H         1 <0>         0.0600 
     41 H5        -15.4673    3.7813   46.1349 H         1 <0>         0.0600 
     42 H6        -13.9877    2.9510   45.6989 H         1 <0>         0.0600 
     43 H7        -19.9004    3.2753   51.5380 H         1 <0>         0.1150 
     44 H8        -17.5884    4.1377   51.2046 H         1 <0>         0.1150 
     45 H9        -21.7418    4.0486   50.0542 H         1 <0>         0.1150 
     46 H10       -17.1113    5.7415   49.3903 H         1 <0>         0.1150 
     47 H11       -21.2781    5.6706   48.2361 H         1 <0>         0.1150 
     48 H12       -11.5511    9.2875   47.3945 H         1 <0>         0.1150 
     49 H13       -14.9575   10.7958   45.2067 H         1 <0>         0.1150 
     50 H14       -10.6538   11.5930   47.5720 H         1 <0>         0.1150 
     51 H15       -14.0554   13.0934   45.3960 H         1 <0>         0.1150 
     52 H16       -11.4073    5.5973   46.4335 H         1 <0>         0.0600 
     53 H17       -11.0497    7.0999   47.2068 H         1 <0>         0.0600 
     54 H18       -11.5113    8.3033   44.9881 H         1 <0>         0.0600 
     55 H19       -11.8994    6.7788   44.2636 H         1 <0>         0.0600 
     56 H20       -19.3482    7.7510   47.8165 H         1 <0>         0.0600 
     57 H21       -19.4618    6.4773   46.6388 H         1 <0>         0.0600 
     58 H22        -9.3383    4.5514   46.6860 H         1 <0>         0.0600 
     59 H23        -8.6832    5.8340   47.6460 H         1 <0>         0.0600 
     60 H24        -5.9071    3.4687   46.1245 H         1 <0>         0.0600 
     61 H25        -7.5093    2.9670   46.5875 H         1 <0>         0.0600 
     62 H26       -12.8955    4.9069   45.0418 H         1 <0>         0.0600 
     63 H27        -9.5472    6.1501   44.7265 H         1 <0>         0.0600 
     64 H28        -7.4572    4.9125   44.9928 H         1 <0>         0.0600 
     65 H29       -17.0509    7.8019   47.6747 H         1 <0>         0.3000 
     66 H30        -8.7872    7.9649   46.7528 H         1 <0>         0.4180 
     67 H31        -6.2886    6.2583   47.1684 H         1 <0>         0.4180 
@<TRIPOS>BOND
     1    1   23 1    
     2    1   37 1    
     3    1   38 1    
     4    1   39 1    
     5    2   23 1    
     6    2   40 1    
     7    2   41 1    
     8    2   42 1    
     9    3    4 ar   
    10    3    5 ar   
    11    3   43 1    
    12    4    6 ar   
    13    4   44 1    
    14    5    7 ar   
    15    5   45 1    
    16    6   17 ar   
    17    6   46 1    
    18    7   17 ar   
    19    7   47 1    
    20    8   10 ar   
    21    8   18 ar   
    22    8   48 1    
    23    9   11 ar   
    24    9   18 ar   
    25    9   49 1    
    26   10   19 ar   
    27   10   50 1    
    28   11   19 ar   
    29   11   51 1    
    30   12   13 1    
    31   12   24 1    
    32   12   52 1    
    33   12   53 1    
    34   13   30 1    
    35   13   54 1    
    36   13   55 1    
    37   14   17 1    
    38   14   29 1    
    39   14   56 1    
    40   14   57 1    
    41   15   24 1    
    42   15   25 1    
    43   15   58 1    
    44   15   59 1    
    45   16   25 1    
    46   16   26 1    
    47   16   60 1    
    48   16   61 1    
    49   18   22 1    
    50   19   36 1    
    51   20   21 ar   
    52   20   23 1    
    53   20   30 ar   
    54   21   27 1    
    55   21   28 ar   
    56   22   28 ar   
    57   22   30 ar   
    58   23   62 1    
    59   24   31 1    
    60   24   63 1    
    61   25   32 1    
    62   25   64 1    
    63   26   33 1    
    64   26   34 2    
    65   27   29 am   BACKBONE|DICT|INTERRES
    66   27   35 2    
    67   29   65 1    
    68   31   66 1    
    69   32   67 1    
@<TRIPOS>SUBSTRUCTURE
     1 <0>         1 GROUP             0       ****    0 ROOT    
@<TRIPOS>MOLECULE
hmdh-ligand
67   69    1
SMALL
USER_CHARGES


@<TRIPOS>ATOM
      1 C1        -15.1661    5.9154   43.3810 C.3       1 <0>        -0.1800 
      2 C2        -16.1921    4.2662   44.9732 C.3       1 <0>        -0.1800 
      3 C3        -20.0009    3.1544   50.5713 C.ar      1 <0>        -0.1150 
      4 C4        -18.7203    3.7332   50.6228 C.ar      1 <0>        -0.1150 
      5 C5        -21.0254    3.7893   49.8455 C.ar      1 <0>        -0.1150 
      6 C6        -18.4629    4.9411   49.9448 C.ar      1 <0>        -0.1150 
      7 C7        -20.7715    4.9980   49.1672 C.ar      1 <0>        -0.1150 
      8 C8        -12.3691    9.8726   46.7756 C.ar      1 <0>        -0.1150 
      9 C9        -12.5954    8.7707   48.9408 C.ar      1 <0>        -0.1150 
     10 C10       -11.3603   10.7037   47.3024 C.ar      1 <0>        -0.1150 
     11 C11       -11.5901    9.6057   49.4676 C.ar      1 <0>        -0.1150 
     12 C12       -11.5273    5.9727   46.4436 C.3       1 <0>        -0.1200 
     13 C13       -12.4655    6.7474   45.4918 C.3       1 <0>         0.0025 
     14 C14       -19.2296    6.8870   48.4677 C.3       1 <0>         0.1950 
     15 C15        -9.2629    6.9629   45.5691 C.3       1 <0>        -0.1200 
     16 C16        -6.9971    5.8618   46.0821 C.3       1 <0>        -0.2200 
     17 C17       -19.4852    5.5780   49.2045 C.ar      1 <0>        -0.1150 
     18 C18       -12.9789    8.8906   47.5883 C.ar      1 <0>         0.0000 
     19 C19       -10.9676   10.5675   48.6479 C.ar      1 <0>         0.2200 
     20 C20       -14.9921    6.4163   45.8400 C.ar      1 <0>        -0.2330 
     21 C21       -15.9079    7.0469   46.6712 C.ar      1 <0>         0.1215 
     22 C22       -13.9860    7.9897   47.0366 C.ar      1 <0>         0.3530 
     23 C23       -15.0912    5.3240   44.7939 C.3       1 <0>         0.0740 
     24 C24       -10.2335    6.7401   46.7589 C.3       1 <0>         0.2050 
     25 C25        -8.2883    5.8145   45.2183 C.3       1 <0>         0.2050 
     26 C26        -5.9264    4.8133   45.7594 C.2       1 <0>         0.7000 
     27 C27       -17.3833    6.8594   46.7902 C.2       1 <0>         0.6385 
     28 N1        -15.2518    8.0170   47.4265 N.2       1 <0>        -0.5630 
     29 N2        -17.8470    7.0608   48.0315 N.am      1 <0>        -0.5000 
     30 N3        -13.7634    7.0435   46.1009 N.pl3     1 <0>        -0.0735 
     31 O1         -9.6029    6.1511   47.8717 O.3       1 <0>        -0.6830 
     32 O2         -7.9740    5.9155   43.8393 O.3       1 <0>        -0.6830 
     33 O3         -6.1338    4.0013   44.8328 O.co2     1 <0>        -0.8000 
     34 O4         -4.8943    4.8553   46.4661 O.co2     1 <0>        -0.8000 
     35 O5        -18.1054    6.5514   45.8455 O.2       1 <0>        -0.5000 
     36 F1         -9.9920   11.3591   49.1534 F         1 <0>        -0.2200 
     37 H1        -14.3437    6.5998   43.1763 H         1 <0>         0.0600 
     38 H2        -15.1117    5.1185   42.6433 H         1 <0>         0.0600 
     39 H3        -16.0952    6.4622   43.2200 H         1 <0>         0.0600 
     40 H4        -16.1713    3.8223   45.9692 H         1 <0>         0.0600 
     41 H5        -17.1868    4.6508   44.7750 H         1 <0>         0.0600 
     42 H6        -16.0538    3.4704   44.2409 H         1 <0>         0.0600 
     43 H7        -20.1967    2.2252   51.0861 H         1 <0>         0.1150 
     44 H8        -17.9302    3.2503   51.1803 H         1 <0>         0.1150 
     45 H9        -22.0035    3.3378   49.7997 H         1 <0>         0.1150 
     46 H10       -17.4725    5.3675   50.0030 H         1 <0>         0.1150 
     47 H11       -21.5653    5.4752   48.6119 H         1 <0>         0.1150 
     48 H12       -12.6621    9.9760   45.7412 H         1 <0>         0.1150 
     49 H13       -13.0613    8.0269   49.5703 H         1 <0>         0.1150 
     50 H14       -10.8795   11.4435   46.6779 H         1 <0>         0.1150 
     51 H15       -11.2877    9.5026   50.4991 H         1 <0>         0.1150 
     52 H16       -11.2925    4.9912   46.0350 H         1 <0>         0.0600 
     53 H17       -12.0507    5.7643   47.3781 H         1 <0>         0.0600 
     54 H18       -12.0215    7.6895   45.1732 H         1 <0>         0.0600 
     55 H19       -12.5877    6.1887   44.5675 H         1 <0>         0.0600 
     56 H20       -19.4774    7.7084   49.1400 H         1 <0>         0.0600 
     57 H21       -19.9153    6.9702   47.6223 H         1 <0>         0.0600 
     58 H22        -8.6783    7.8628   45.7605 H         1 <0>         0.0600 
     59 H23        -9.8560    7.2028   44.6874 H         1 <0>         0.0600 
     60 H24        -7.2451    5.7243   47.1283 H         1 <0>         0.0600 
     61 H25        -6.5357    6.8455   46.0079 H         1 <0>         0.0600 
     62 H26       -14.1709    4.7411   44.8497 H         1 <0>         0.0600 
     63 H27       -10.5266    7.7291   47.1067 H         1 <0>         0.0600 
     64 H28        -8.7860    4.8579   45.3592 H         1 <0>         0.0600 
     65 H29       -17.1666    7.3486   48.7208 H         1 <0>         0.3000 
     66 H30        -9.0955    6.8484   48.2652 H         1 <0>         0.4180 
     67 H31        -7.4714    5.1374   43.6131 H         1 <0>         0.4180 
@<TRIPOS>BOND
     1    1   23 1    
     2    1   37 1    
     3    1   38 1    
     4    1   39 1    
     5    2   23 1    
     6    2   40 1    
     7    2   41 1    
     8    2   42 1    
     9    3    4 ar   
    10    3    5 ar   
    11    3   43 1    
    12    4    6 ar   
    13    4   44 1    
    14    5    7 ar   
    15    5   45 1    
    16    6   17 ar   
    17    6   46 1    
    18    7   17 ar   
    19    7   47 1    
    20    8   10 ar   
    21    8   18 ar   
    22    8   48 1    
    23    9   11 ar   
    24    9   18 ar   
    25    9   49 1    
    26   10   19 ar   
    27   10   50 1    
    28   11   19 ar   
    29   11   51 1    
    30   12   13 1    
    31   12   24 1    
    32   12   52 1    
    33   12   53 1    
    34   13   30 1    
    35   13   54 1    
    36   13   55 1    
    37   14   17 1    
    38   14   29 1    
    39   14   56 1    
    40   14   57 1    
    41   15   24 1    
    42   15   25 1    
    43   15   58 1    
    44   15   59 1    
    45   16   25 1    
    46   16   26 1    
    47   16   60 1    
    48   16   61 1    
    49   18   22 1    
    50   19   36 1    
    51   20   21 ar   
    52   20   23 1    
    53   20   30 ar   
    54   21   27 1    
    55   21   28 ar   
    56   22   28 ar   
    57   22   30 ar   
    58   23   62 1    
    59   24   31 1    
    60   24   63 1    
    61   25   32 1    
    62   25   64 1    
    63   26   33 1    
    64   26   34 2    
    65   27   29 am   BACKBONE|DICT|INTERRES
    66   27   35 2    
    67   29   65 1    
    68   31   66 1    
    69   32   67 1    
@<TRIPOS>SUBSTRUCTURE
     1 <0>         1 GROUP             0       ****    0 ROOT    
@<TRIPOS>MOLECULE
hmdh-ligand
67   69    1
SMALL
USER_CHARGES


@<TRIPOS>ATOM
      1 C1        -14.9851    5.5239   43.4756 C.3       1 <0>        -0.1800 
      2 C2        -14.5587    3.8632   45.3807 C.3       1 <0>        -0.1800 
      3 C3        -19.8522    3.7876   50.5553 C.ar      1 <0>        -0.1150 
      4 C4        -20.7869    4.3525   49.6678 C.ar      1 <0>        -0.1150 
      5 C5        -18.5392    4.2924   50.6043 C.ar      1 <0>        -0.1150 
      6 C6        -20.4043    5.4092   48.8192 C.ar      1 <0>        -0.1150 
      7 C7        -18.1574    5.3519   49.7576 C.ar      1 <0>        -0.1150 
      8 C8        -12.0438    8.7663   48.9433 C.ar      1 <0>        -0.1150 
      9 C9        -12.0319   10.0964   46.8969 C.ar      1 <0>        -0.1150 
     10 C10       -11.1918    9.7048   49.5578 C.ar      1 <0>        -0.1150 
     11 C11       -11.1800   11.0341   47.5138 C.ar      1 <0>        -0.1150 
     12 C12       -10.7484    6.0957   46.2685 C.3       1 <0>        -0.1200 
     13 C13       -11.7012    6.9782   45.4342 C.3       1 <0>         0.0025 
     14 C14       -18.7037    7.0550   47.9202 C.3       1 <0>         0.1950 
     15 C15        -8.3362    5.2395   46.5832 C.3       1 <0>        -0.1200 
     16 C16        -6.7108    3.9096   45.0266 C.3       1 <0>        -0.2200 
     17 C17       -19.0851    5.9094   48.8488 C.ar      1 <0>        -0.1150 
     18 C18       -12.4642    8.9582   47.6106 C.ar      1 <0>         0.0000 
     19 C19       -10.7632   10.8401   48.8444 C.ar      1 <0>         0.2200 
     20 C20       -14.1828    6.3534   45.7531 C.ar      1 <0>        -0.2330 
     21 C21       -15.1801    6.8878   46.5539 C.ar      1 <0>         0.1215 
     22 C22       -13.3626    7.9927   46.9907 C.ar      1 <0>         0.3530 
     23 C23       -14.1951    5.2166   44.7572 C.3       1 <0>         0.0740 
     24 C24        -9.2921    6.1224   45.7580 C.3       1 <0>         0.2050 
     25 C25        -6.9109    5.1260   45.9779 C.3       1 <0>         0.2050 
     26 C26        -6.4846    2.5541   45.7243 C.2       1 <0>         0.7000 
     27 C27       -16.6308    6.5274   46.6316 C.2       1 <0>         0.6385 
     28 N1        -14.6388    7.9053   47.3360 N.2       1 <0>        -0.5630 
     29 N2        -17.2790    7.1565   47.6221 N.am      1 <0>        -0.5000 
     30 N3        -13.0285    7.1031   46.0338 N.pl3     1 <0>        -0.0735 
     31 O1         -8.8260    7.4546   45.8413 O.3       1 <0>        -0.6830 
     32 O2         -5.9794    5.0680   47.0418 O.3       1 <0>        -0.6830 
     33 O3         -5.9878    1.6319   45.0411 O.co2     1 <0>        -0.8000 
     34 O4         -6.7880    2.4596   46.9370 O.co2     1 <0>        -0.8000 
     35 O5        -17.1879    5.7514   45.8575 O.2       1 <0>        -0.5000 
     36 F1         -9.9522   11.7461   49.4399 F         1 <0>        -0.2200 
     37 H1        -14.6128    6.4305   42.9981 H         1 <0>         0.0600 
     38 H2        -14.8736    4.7110   42.7579 H         1 <0>         0.0600 
     39 H3        -16.0493    5.6594   43.6531 H         1 <0>         0.0600 
     40 H4        -13.9247    3.6524   46.2420 H         1 <0>         0.0600 
     41 H5        -15.5946    3.8070   45.7085 H         1 <0>         0.0600 
     42 H6        -14.3880    3.0644   44.6599 H         1 <0>         0.0600 
     43 H7        -20.1430    2.9725   51.2017 H         1 <0>         0.1150 
     44 H8        -21.7954    3.9687   49.6313 H         1 <0>         0.1150 
     45 H9        -17.8209    3.8658   51.2899 H         1 <0>         0.1150 
     46 H10       -21.1291    5.8328   48.1400 H         1 <0>         0.1150 
     47 H11       -17.1459    5.7272   49.8133 H         1 <0>         0.1150 
     48 H12       -12.3770    7.8988   49.4948 H         1 <0>         0.1150 
     49 H13       -12.3571   10.2512   45.8782 H         1 <0>         0.1150 
     50 H14       -10.8692    9.5569   50.5774 H         1 <0>         0.1150 
     51 H15       -10.8462   11.9068   46.9719 H         1 <0>         0.1150 
     52 H16       -11.1184    5.0691   46.2540 H         1 <0>         0.0600 
     53 H17       -10.7707    6.4129   47.3119 H         1 <0>         0.0600 
     54 H18       -11.2871    7.9791   45.3277 H         1 <0>         0.0600 
     55 H19       -11.7818    6.6138   44.4128 H         1 <0>         0.0600 
     56 H20       -19.0086    7.9856   48.3980 H         1 <0>         0.0600 
     57 H21       -19.2745    6.9825   46.9924 H         1 <0>         0.0600 
     58 H22        -8.7638    4.2452   46.7099 H         1 <0>         0.0600 
     59 H23        -8.2882    5.6537   47.5892 H         1 <0>         0.0600 
     60 H24        -5.8365    4.0939   44.4015 H         1 <0>         0.0600 
     61 H25        -7.5536    3.8183   44.3402 H         1 <0>         0.0600 
     62 H26       -13.1879    5.0500   44.4056 H         1 <0>         0.0600 
     63 H27        -9.2567    5.8089   44.7142 H         1 <0>         0.0600 
     64 H28        -6.6772    6.0374   45.4270 H         1 <0>         0.0600 
     65 H29       -16.7172    7.7785   48.1878 H         1 <0>         0.3000 
     66 H30        -8.7847    7.7248   46.7554 H         1 <0>         0.4180 
     67 H31        -6.0532    4.1817   47.3877 H         1 <0>         0.4180 
@<TRIPOS>BOND
     1    1   23 1    
     2    1   37 1    
     3    1   38 1    
     4    1   39 1    
     5    2   23 1    
     6    2   40 1    
     7    2   41 1    
     8    2   42 1    
     9    3    4 ar   
    10    3    5 ar   
    11    3   43 1    
    12    4    6 ar   
    13    4   44 1    
    14    5    7 ar   
    15    5   45 1    
    16    6   17 ar   
    17    6   46 1    
    18    7   17 ar   
    19    7   47 1    
    20    8   10 ar   
    21    8   18 ar   
    22    8   48 1    
    23    9   11 ar   
    24    9   18 ar   
    25    9   49 1    
    26   10   19 ar   
    27   10   50 1    
    28   11   19 ar   
    29   11   51 1    
    30   12   13 1    
    31   12   24 1    
    32   12   52 1    
    33   12   53 1    
    34   13   30 1    
    35   13   54 1    
    36   13   55 1    
    37   14   17 1    
    38   14   29 1    
    39   14   56 1    
    40   14   57 1    
    41   15   24 1    
    42   15   25 1    
    43   15   58 1    
    44   15   59 1    
    45   16   25 1    
    46   16   26 1    
    47   16   60 1    
    48   16   61 1    
    49   18   22 1    
    50   19   36 1    
    51   20   21 ar   
    52   20   23 1    
    53   20   30 ar   
    54   21   27 1    
    55   21   28 ar   
    56   22   28 ar   
    57   22   30 ar   
    58   23   62 1    
    59   24   31 1    
    60   24   63 1    
    61   25   32 1    
    62   25   64 1    
    63   26   33 1    
    64   26   34 2    
    65   27   29 am   BACKBONE|DICT|INTERRES
    66   27   35 2    
    67   29   65 1    
    68   31   66 1    
    69   32   67 1    
@<TRIPOS>SUBSTRUCTURE
     1 <0>         1 GROUP             0       ****    0 ROOT    
@<TRIPOS>MOLECULE
hmdh-ligand
67   69    1
SMALL
USER_CHARGES


@<TRIPOS>ATOM
      1 C1        -13.8549    3.9336   45.4588 C.3       1 <0>        -0.1800 
      2 C2        -14.5959    5.5139   43.5771 C.3       1 <0>        -0.1800 
      3 C3        -20.0288    3.6119   50.5297 C.ar      1 <0>        -0.1150 
      4 C4        -20.9667    4.2116   49.6683 C.ar      1 <0>        -0.1150 
      5 C5        -18.7433    4.1714   50.6662 C.ar      1 <0>        -0.1150 
      6 C6        -20.6129    5.3583   48.9302 C.ar      1 <0>        -0.1150 
      7 C7        -18.3921    5.3230   49.9350 C.ar      1 <0>        -0.1150 
      8 C8        -12.2984    8.7673   49.1359 C.ar      1 <0>        -0.1150 
      9 C9        -12.0146    9.8828   46.9825 C.ar      1 <0>        -0.1150 
     10 C10       -11.3691    9.6529   49.7161 C.ar      1 <0>        -0.1150 
     11 C11       -11.0863   10.7699   47.5646 C.ar      1 <0>        -0.1150 
     12 C12       -10.9389    6.1508   46.5815 C.3       1 <0>        -0.1200 
     13 C13       -12.0045    6.7751   45.6501 C.3       1 <0>         0.0025 
     14 C14       -18.9589    7.1589   48.2474 C.3       1 <0>         0.1950 
     15 C15        -8.4845    5.3477   46.7336 C.3       1 <0>        -0.1200 
     16 C16        -6.9310    4.0385   45.0800 C.3       1 <0>        -0.2200 
     17 C17       -19.3206    5.9161   49.0502 C.ar      1 <0>        -0.1150 
     18 C18       -12.6201    8.8749   47.7660 C.ar      1 <0>         0.0000 
     19 C19       -10.7657   10.6550   48.9314 C.ar      1 <0>         0.2200 
     20 C20       -14.5289    6.3305   46.0054 C.ar      1 <0>        -0.2330 
     21 C21       -15.4828    6.9837   46.7661 C.ar      1 <0>         0.1215 
     22 C22       -13.5853    7.9497   47.1824 C.ar      1 <0>         0.3530 
     23 C23       -14.7024    5.1534   45.0690 C.3       1 <0>         0.0740 
     24 C24        -9.5325    6.1534   45.9376 C.3       1 <0>         0.2050 
     25 C25        -7.0961    5.2536   46.0410 C.3       1 <0>         0.2050 
     26 C26        -6.6225    2.6854   45.7550 C.2       1 <0>         0.7000 
     27 C27       -16.9612    6.7502   46.8123 C.2       1 <0>         0.6385 
     28 N1        -14.8675    7.9775   47.5206 N.2       1 <0>        -0.5630 
     29 N2        -17.5435    7.2599   47.9060 N.am      1 <0>        -0.5000 
     30 N3        -13.3141    6.9950   46.2660 N.pl3     1 <0>        -0.0735 
     31 O1         -9.0982    7.4975   45.8418 O.3       1 <0>        -0.6830 
     32 O2         -6.0978    5.2135   47.0418 O.3       1 <0>        -0.6830 
     33 O3         -6.1946    1.7671   45.0226 O.co2     1 <0>        -0.8000 
     34 O4         -6.7901    2.5855   46.9932 O.co2     1 <0>        -0.8000 
     35 O5        -17.5875    6.1514   45.9375 O.2       1 <0>        -0.5000 
     36 F1         -9.8751   11.5060   49.4923 F         1 <0>        -0.2200 
     37 H1        -14.0995    3.6028   46.4673 H         1 <0>         0.0600 
     38 H2        -14.0380    3.0984   44.7847 H         1 <0>         0.0600 
     39 H3        -12.7889    4.1355   45.4389 H         1 <0>         0.0600 
     40 H4        -15.3195    6.2863   43.3097 H         1 <0>         0.0600 
     41 H5        -13.6110    5.8730   43.2868 H         1 <0>         0.0600 
     42 H6        -14.8058    4.6415   42.9565 H         1 <0>         0.0600 
     43 H7        -20.2953    2.7257   51.0873 H         1 <0>         0.1150 
     44 H8        -21.9546    3.7857   49.5638 H         1 <0>         0.1150 
     45 H9        -18.0235    3.7184   51.3333 H         1 <0>         0.1150 
     46 H10       -21.3381    5.8064   48.2671 H         1 <0>         0.1150 
     47 H11       -17.4008    5.7368   50.0545 H         1 <0>         0.1150 
     48 H12       -12.7612    8.0000   49.7405 H         1 <0>         0.1150 
     49 H13       -12.2630    9.9766   45.9349 H         1 <0>         0.1150 
     50 H14       -11.1200    9.5633   50.7639 H         1 <0>         0.1150 
     51 H15       -10.6179   11.5388   46.9669 H         1 <0>         0.1150 
     52 H16       -11.2288    5.1258   46.8151 H         1 <0>         0.0600 
     53 H17       -10.9015    6.6764   47.5344 H         1 <0>         0.0600 
     54 H18       -11.6550    7.7314   45.2655 H         1 <0>         0.0600 
     55 H19       -12.1165    6.1520   44.7731 H         1 <0>         0.0600 
     56 H20       -19.2193    8.0313   48.8460 H         1 <0>         0.0600 
     57 H21       -19.5713    7.2102   47.3446 H         1 <0>         0.0600 
     58 H22        -8.8615    4.3449   46.9328 H         1 <0>         0.0600 
     59 H23        -8.3887    5.8103   47.7136 H         1 <0>         0.0600 
     60 H24        -6.1033    4.2418   44.4004 H         1 <0>         0.0600 
     61 H25        -7.8110    3.9304   44.4449 H         1 <0>         0.0600 
     62 H26       -15.7186    4.7843   45.1828 H         1 <0>         0.0600 
     63 H27        -9.5878    5.7520   44.9290 H         1 <0>         0.0600 
     64 H28        -6.9112    6.1676   45.4768 H         1 <0>         0.0600 
     65 H29       -16.9356    7.7581   48.5417 H         1 <0>         0.3000 
     66 H30        -8.9010    7.8216   46.7182 H         1 <0>         0.4180 
     67 H31        -6.1181    4.3189   47.3748 H         1 <0>         0.4180 
@<TRIPOS>BOND
     1    1   23 1    
     2    1   37 1    
     3    1   38 1    
     4    1   39 1    
     5    2   23 1    
     6    2   40 1    
     7    2   41 1    
     8    2   42 1    
     9    3    4 ar   
    10    3    5 ar   
    11    3   43 1    
    12    4    6 ar   
    13    4   44 1    
    14    5    7 ar   
    15    5   45 1    
    16    6   17 ar   
    17    6   46 1    
    18    7   17 ar   
    19    7   47 1    
    20    8   10 ar   
    21    8   18 ar   
    22    8   48 1    
    23    9   11 ar   
    24    9   18 ar   
    25    9   49 1    
    26   10   19 ar   
    27   10   50 1    
    28   11   19 ar   
    29   11   51 1    
    30   12   13 1    
    31   12   24 1    
    32   12   52 1    
    33   12   53 1    
    34   13   30 1    
    35   13   54 1    
    36   13   55 1    
    37   14   17 1    
    38   14   29 1    
    39   14   56 1    
    40   14   57 1    
    41   15   24 1    
    42   15   25 1    
    43   15   58 1    
    44   15   59 1    
    45   16   25 1    
    46   16   26 1    
    47   16   60 1    
    48   16   61 1    
    49   18   22 1    
    50   19   36 1    
    51   20   21 ar   
    52   20   23 1    
    53   20   30 ar   
    54   21   27 1    
    55   21   28 ar   
    56   22   28 ar   
    57   22   30 ar   
    58   23   62 1    
    59   24   31 1    
    60   24   63 1    
    61   25   32 1    
    62   25   64 1    
    63   26   33 1    
    64   26   34 2    
    65   27   29 am   BACKBONE|DICT|INTERRES
    66   27   35 2    
    67   29   65 1    
    68   31   66 1    
    69   32   67 1    
@<TRIPOS>SUBSTRUCTURE
     1 <0>         1 GROUP             0       ****    0 ROOT    
