@<TRIPOS>MOLECULE
hs90a-ligand
36   38    1
SMALL
USER_CHARGES


@<TRIPOS>ATOM
      1 C1          4.9175   16.2327   25.8940 C.3       1 <0>         0.1100 
      2 C2          7.2623   10.1631   23.0745 C.3       1 <0>         0.1100 
      3 C3          5.9466   13.8066   24.8101 C.ar      1 <0>        -0.1150 
      4 C4          6.3990   12.5950   24.2542 C.ar      1 <0>        -0.1150 
      5 C5          3.6521   13.0605   24.5385 C.ar      1 <0>        -0.1150 
      6 C6          3.0755   10.8112   23.4823 C.3       1 <0>         0.1100 
      7 C7          4.5603   14.0480   24.9601 C.ar      1 <0>         0.0850 
      8 C8          5.4817   11.6031   23.8244 C.ar      1 <0>         0.0850 
      9 C9          4.0925   11.8429   23.9719 C.ar      1 <0>        -0.1150 
     10 C10         1.8262   10.7228   24.3033 C.ar      1 <0>         0.3809 
     11 C11        -0.2752   10.9949   24.8520 C.ar      1 <0>        -0.2309 
     12 C12        -1.6420   11.2225   25.0516 C.ar      1 <0>         0.6570 
     13 C13         0.4430   10.3029   25.8629 C.ar      1 <0>         0.9827 
     14 C14        -1.4080   10.2475   27.1241 C.ar      1 <0>         0.8905 
     15 N1         -2.4595   11.8216   24.0938 N.pl3     1 <0>        -0.9200 
     16 N2          0.6692   11.2720   23.8818 N.pl3     1 <0>        -0.5500 
     17 N3          1.7615   10.1026   25.4819 N.2       1 <0>        -0.7018 
     18 N4         -2.1903   10.8401   26.2160 N.ar      1 <0>        -0.7399 
     19 N5         -0.1147    9.9129   27.0120 N.ar      1 <0>        -0.7907 
     20 O1          4.0280   15.2009   25.4934 O.3       1 <0>        -0.2850 
     21 O2          5.8737   10.4175   23.2373 O.3       1 <0>        -0.2850 
     22 F1         -2.0157    9.9081   28.2821 F         1 <0>        -0.2200 
     23 H1          4.3377   17.0669   26.2925 H         1 <0>         0.0300 
     24 H2          5.4996   16.6069   25.0495 H         1 <0>         0.0300 
     25 H3          5.5921   15.8949   26.6839 H         1 <0>         0.0300 
     26 H4          7.3941    9.1898   22.6019 H         1 <0>         0.0300 
     27 H5          7.7327   10.9084   22.4324 H         1 <0>         0.0300 
     28 H6          7.7796   10.1318   24.0347 H         1 <0>         0.0300 
     29 H7          6.6814   14.5334   25.1174 H         1 <0>         0.1150 
     30 H8          7.4649   12.4594   24.1557 H         1 <0>         0.1150 
     31 H9          2.5950   13.2573   24.6475 H         1 <0>         0.1150 
     32 H10         2.8081   11.0439   22.4514 H         1 <0>         0.0600 
     33 H11         3.5239    9.8177   23.4649 H         1 <0>         0.0600 
     34 H12        -2.1137   12.1043   23.1923 H         1 <0>         0.3600 
     35 H13        -3.4487   12.0400   24.2821 H         1 <0>         0.3600 
     36 H14         0.5422   11.7848   23.0225 H         1 <0>         0.4072 
@<TRIPOS>BOND
     1    1   20 1    
     2    1   23 1    
     3    1   24 1    
     4    1   25 1    
     5    2   21 1    
     6    2   26 1    
     7    2   27 1    
     8    2   28 1    
     9    3    4 ar   
    10    3    7 ar   
    11    3   29 1    
    12    4    8 ar   
    13    4   30 1    
    14    5    7 ar   
    15    5    9 ar   
    16    5   31 1    
    17    6    9 1    
    18    6   10 1    
    19    6   32 1    
    20    6   33 1    
    21    7   20 1    
    22    8    9 ar   
    23    8   21 1    
    24   10   16 ar   
    25   10   17 ar   
    26   11   12 ar   
    27   11   13 ar   
    28   11   16 ar   
    29   12   15 1    
    30   12   18 ar   
    31   13   17 ar   
    32   13   19 ar   
    33   14   18 ar   
    34   14   19 ar   
    35   14   22 1    
    36   15   34 1    
    37   15   35 1    
    38   16   36 1    
@<TRIPOS>SUBSTRUCTURE
     1 <0>         1 GROUP             0       ****    0 ROOT    
@<TRIPOS>MOLECULE
hs90a-ligand
36   38    1
SMALL
USER_CHARGES


@<TRIPOS>ATOM
      1 C1          0.2349    9.0441   27.7136 C.3       1 <0>         0.1100 
      2 C2         -1.8694   12.7757   21.6541 C.3       1 <0>         0.1100 
      3 C3         -1.9374   10.9974   25.5011 C.ar      1 <0>        -0.1150 
      4 C4         -1.9265   11.6545   24.2585 C.ar      1 <0>        -0.1150 
      5 C5          0.4437   10.5795   25.3078 C.ar      1 <0>        -0.1150 
      6 C6          1.7549   11.2356   23.2474 C.3       1 <0>         0.1100 
      7 C7         -0.7589   10.4557   26.0440 C.ar      1 <0>         0.0850 
      8 C8         -0.7233   11.7966   23.5256 C.ar      1 <0>         0.0850 
      9 C9          0.4646   11.2387   24.0587 C.ar      1 <0>        -0.1150 
     10 C10         2.8555   12.0708   23.8092 C.ar      1 <0>         0.3809 
     11 C11         4.9074   12.6887   24.2348 C.ar      1 <0>        -0.2309 
     12 C12         6.2681   12.9711   24.3848 C.ar      1 <0>         0.6570 
     13 C13         3.9721   13.6561   24.6846 C.ar      1 <0>         0.9827 
     14 C14         5.6617   14.9300   25.4326 C.ar      1 <0>         0.8905 
     15 N1          7.2613   12.1322   23.8871 N.pl3     1 <0>        -0.9200 
     16 N2          4.1371   11.6676   23.7072 N.pl3     1 <0>        -0.5500 
     17 N3          2.6787   13.2659   24.3743 N.2       1 <0>        -0.7018 
     18 N4          6.6325   14.1092   25.0018 N.ar      1 <0>        -0.7399 
     19 N5          4.3348   14.7869   25.2980 N.ar      1 <0>        -0.7907 
     20 O1         -0.8615    9.8308   27.2696 O.3       1 <0>        -0.2850 
     21 O2         -0.6513   12.4401   22.3048 O.3       1 <0>        -0.2850 
     22 F1          6.0654   16.0398   26.0885 F         1 <0>        -0.2200 
     23 H1         -0.0222    8.5748   28.6631 H         1 <0>         0.0300 
     24 H2          1.1305    9.6406   27.8811 H         1 <0>         0.0300 
     25 H3          0.4671    8.2516   27.0011 H         1 <0>         0.0300 
     26 H4         -1.6594   13.2208   20.6823 H         1 <0>         0.0300 
     27 H5         -2.4652   11.8804   21.4827 H         1 <0>         0.0300 
     28 H6         -2.4553   13.4978   22.2245 H         1 <0>         0.0300 
     29 H7         -2.8691   10.9150   26.0406 H         1 <0>         0.1150 
     30 H8         -2.8616   12.0503   23.8953 H         1 <0>         0.1150 
     31 H9          1.3670   10.1657   25.6838 H         1 <0>         0.1150 
     32 H10         2.0993   10.2043   23.1672 H         1 <0>         0.0600 
     33 H11         1.5773   11.5677   22.2277 H         1 <0>         0.0600 
     34 H12         7.0415   11.2917   23.3779 H         1 <0>         0.3600 
     35 H13         8.2298   12.4168   23.9054 H         1 <0>         0.3600 
     36 H14         4.4421   10.7962   23.2997 H         1 <0>         0.4072 
@<TRIPOS>BOND
     1    1   20 1    
     2    1   23 1    
     3    1   24 1    
     4    1   25 1    
     5    2   21 1    
     6    2   26 1    
     7    2   27 1    
     8    2   28 1    
     9    3    4 ar   
    10    3    7 ar   
    11    3   29 1    
    12    4    8 ar   
    13    4   30 1    
    14    5    7 ar   
    15    5    9 ar   
    16    5   31 1    
    17    6    9 1    
    18    6   10 1    
    19    6   32 1    
    20    6   33 1    
    21    7   20 1    
    22    8    9 ar   
    23    8   21 1    
    24   10   16 ar   
    25   10   17 ar   
    26   11   12 ar   
    27   11   13 ar   
    28   11   16 ar   
    29   12   15 1    
    30   12   18 ar   
    31   13   17 ar   
    32   13   19 ar   
    33   14   18 ar   
    34   14   19 ar   
    35   14   22 1    
    36   15   34 1    
    37   15   35 1    
    38   16   36 1    
@<TRIPOS>SUBSTRUCTURE
     1 <0>         1 GROUP             0       ****    0 ROOT    
@<TRIPOS>MOLECULE
hs90a-ligand
36   38    1
SMALL
USER_CHARGES


@<TRIPOS>ATOM
      1 C1         -1.4817   10.0052   28.1557 C.3       1 <0>         0.1100 
      2 C2         -1.8583   12.7790   21.6473 C.3       1 <0>         0.1100 
      3 C3         -1.7853   11.0283   25.5088 C.ar      1 <0>        -0.1150 
      4 C4         -1.8168   11.6928   24.2698 C.ar      1 <0>        -0.1150 
      5 C5          0.5741   10.5631   25.1964 C.ar      1 <0>        -0.1150 
      6 C6          1.8277   11.2657   23.1221 C.3       1 <0>         0.1100 
      7 C7         -0.5847   10.4578   25.9875 C.ar      1 <0>         0.0850 
      8 C8         -0.6464   11.8123   23.4817 C.ar      1 <0>         0.0850 
      9 C9          0.5545   11.2395   23.9597 C.ar      1 <0>        -0.1150 
     10 C10         2.9207   12.0901   23.7200 C.ar      1 <0>         0.3809 
     11 C11         4.9547   12.7071   24.2146 C.ar      1 <0>        -0.2309 
     12 C12         6.3086   12.9975   24.4014 C.ar      1 <0>         0.6570 
     13 C13         4.0011   13.6514   24.6804 C.ar      1 <0>         0.9827 
     14 C14         5.6636   14.9248   25.4874 C.ar      1 <0>         0.8905 
     15 N1          7.3140   12.1775   23.8912 N.pl3     1 <0>        -0.9200 
     16 N2          4.2080   11.6989   23.6312 N.pl3     1 <0>        -0.5500 
     17 N3          2.7201   13.2634   24.3217 N.2       1 <0>        -0.7018 
     18 N4          6.6504   14.1213   25.0564 N.ar      1 <0>        -0.7399 
     19 N5          4.3400   14.7691   25.3284 N.ar      1 <0>        -0.7907 
     20 O1         -0.4724    9.7870   27.1830 O.3       1 <0>        -0.2850 
     21 O2         -0.6207   12.4412   22.2545 O.3       1 <0>        -0.2850 
     22 F1          6.0410   16.0316   26.1646 F         1 <0>        -0.2200 
     23 H1         -1.2136    9.4598   29.0592 H         1 <0>         0.0300 
     24 H2         -2.4611    9.6420   27.8518 H         1 <0>         0.0300 
     25 H3         -1.5645   11.0632   28.4067 H         1 <0>         0.0300 
     26 H4         -1.6696   13.2275   20.6736 H         1 <0>         0.0300 
     27 H5         -2.4615   11.8851   21.4896 H         1 <0>         0.0300 
     28 H6         -2.4239   13.5021   22.2359 H         1 <0>         0.0300 
     29 H7         -2.7069   10.9628   26.0685 H         1 <0>         0.1150 
     30 H8         -2.7641   12.1006   23.9514 H         1 <0>         0.1150 
     31 H9          1.4929   10.1198   25.5487 H         1 <0>         0.1150 
     32 H10         2.1796   10.2395   23.0028 H         1 <0>         0.0600 
     33 H11         1.6368   11.6388   22.1169 H         1 <0>         0.0600 
     34 H12         7.0989   11.3392   23.3768 H         1 <0>         0.3600 
     35 H13         8.2868   12.4435   23.9488 H         1 <0>         0.3600 
     36 H14         4.5317   10.8456   23.2024 H         1 <0>         0.4072 
@<TRIPOS>BOND
     1    1   20 1    
     2    1   23 1    
     3    1   24 1    
     4    1   25 1    
     5    2   21 1    
     6    2   26 1    
     7    2   27 1    
     8    2   28 1    
     9    3    4 ar   
    10    3    7 ar   
    11    3   29 1    
    12    4    8 ar   
    13    4   30 1    
    14    5    7 ar   
    15    5    9 ar   
    16    5   31 1    
    17    6    9 1    
    18    6   10 1    
    19    6   32 1    
    20    6   33 1    
    21    7   20 1    
    22    8    9 ar   
    23    8   21 1    
    24   10   16 ar   
    25   10   17 ar   
    26   11   12 ar   
    27   11   13 ar   
    28   11   16 ar   
    29   12   15 1    
    30   12   18 ar   
    31   13   17 ar   
    32   13   19 ar   
    33   14   18 ar   
    34   14   19 ar   
    35   14   22 1    
    36   15   34 1    
    37   15   35 1    
    38   16   36 1    
@<TRIPOS>SUBSTRUCTURE
     1 <0>         1 GROUP             0       ****    0 ROOT    
