@<TRIPOS>MOLECULE
hxk4-ligand
35   37    1
SMALL
USER_CHARGES


@<TRIPOS>ATOM
      1 C1        -11.7968    7.7543   22.3614 C.3       1 <0>        -0.0575 
      2 C2        -12.7992    6.7910   19.0106 C.ar      1 <0>         0.1850 
      3 C3         -8.2901   -2.9547   23.2945 C.2       1 <0>         0.1862 
      4 C4        -12.6901    7.7360   19.9932 C.ar      1 <0>        -0.2860 
      5 C5         -7.7396   -3.6240   22.2307 C.2       1 <0>        -0.3376 
      6 C6         -9.5522    2.6580   20.7665 C.ar      1 <0>        -0.1150 
      7 C7         -8.2901    4.1861   18.7766 C.ar      1 <0>        -0.1150 
      8 C8         -8.5918    2.0373   19.9366 C.ar      1 <0>        -0.1150 
      9 C9         -7.9871    2.8137   18.8981 C.ar      1 <0>         0.1800 
     10 C10        -9.1892    4.8010   19.6666 C.ar      1 <0>         0.2200 
     11 C11        -9.8586    4.0214   20.6376 C.ar      1 <0>         0.1525 
     12 C12        -8.1761   -1.2460   21.8068 C.2       1 <0>         0.3859 
     13 C13       -11.8816    5.8643   20.7117 C.ar      1 <0>         0.5055 
     14 C14        -8.2901    0.5730   20.1334 C.2       1 <0>         0.6150 
     15 N1         -7.0798    2.2922   17.9766 N.pl3     1 <0>        -0.9000 
     16 N2         -8.5240   -1.5990   23.0460 N.2       1 <0>        -0.4803 
     17 N3        -12.2901    5.6010   19.4835 N.2       1 <0>        -0.5630 
     18 N4         -8.3754    0.0964   21.3903 N.am      1 <0>        -0.3850 
     19 N5        -12.1072    7.1296   21.0912 N.pl3     1 <0>        -0.0735 
     20 O1         -7.9507   -0.1086   19.1766 O.2       1 <0>        -0.5000 
     21 F1         -9.3934    6.1335   19.5766 F         1 <0>        -0.2200 
     22 S1         -7.4971   -2.5772   20.8604 S.3       1 <0>         0.0010 
     23 S2        -11.0901    4.6858   21.7170 S.3       1 <0>        -0.3050 
     24 H1        -12.1648    8.7810   22.3748 H         1 <0>         0.0600 
     25 H2        -12.2731    7.2011   23.1711 H         1 <0>         0.0600 
     26 H3        -10.7169    7.7609   22.5130 H         1 <0>         0.0600 
     27 H4        -13.1958    6.8728   18.0095 H         1 <0>         0.0750 
     28 H5         -8.5503   -3.3644   24.2597 H         1 <0>         0.0981 
     29 H6        -12.9708    8.7788   19.9766 H         1 <0>         0.1870 
     30 H7         -7.4665   -4.6672   22.1701 H         1 <0>         0.2317 
     31 H8        -10.0963    2.0864   21.5025 H         1 <0>         0.1150 
     32 H9         -7.8124    4.7861   18.0154 H         1 <0>         0.1150 
     33 H10        -6.7612    2.8491   17.1902 H         1 <0>         0.3600 
     34 H11        -6.9772    1.2882   17.8814 H         1 <0>         0.3600 
     35 H12        -8.6733    0.7429   22.1109 H         1 <0>         0.3000 
@<TRIPOS>BOND
     1    1   19 1    
     2    1   24 1    
     3    1   25 1    
     4    1   26 1    
     5    2    4 ar   
     6    2   17 ar   
     7    2   27 1    
     8    3    5 2    
     9    3   16 1    
    10    3   28 1    
    11    4   19 ar   
    12    4   29 1    
    13    5   22 1    
    14    5   30 1    
    15    6    8 ar   
    16    6   11 ar   
    17    6   31 1    
    18    7    9 ar   
    19    7   10 ar   
    20    7   32 1    
    21    8    9 ar   
    22    8   14 1    
    23    9   15 1    
    24   10   11 ar   
    25   10   21 1    
    26   11   23 1    
    27   12   16 2    
    28   12   18 am   BACKBONE|DICT|INTERRES
    29   12   22 1    
    30   13   17 ar   
    31   13   19 ar   
    32   13   23 1    
    33   14   18 am   BACKBONE|DICT|INTERRES
    34   14   20 2    
    35   15   33 1    
    36   15   34 1    
    37   18   35 1    
@<TRIPOS>SUBSTRUCTURE
     1 <0>         1 GROUP             0       ****    0 ROOT    
