@<TRIPOS>MOLECULE
igf1r-ligand
49   53    1
SMALL
USER_CHARGES


@<TRIPOS>ATOM
      1 C1          6.1574   -7.1991   24.3793 C.3       1 <0>        -0.0650 
      2 C2          8.6874   -5.0360   22.4372 C.ar      1 <0>         0.2270 
      3 C3          9.1097   -4.8179   23.7608 C.ar      1 <0>        -0.4470 
      4 C4          7.6693   -4.2171   21.9147 C.ar      1 <0>        -0.4470 
      5 C5          4.0925   -1.9639   19.8206 C.ar      1 <0>        -0.1150 
      6 C6          3.5041   -1.9858   18.6252 C.ar      1 <0>        -0.0637 
      7 C7          8.5028   -3.7809   24.4956 C.ar      1 <0>         0.4730 
      8 C8          6.0983  -13.3425   20.8650 C.ar      1 <0>         0.1850 
      9 C9          5.2574  -12.2521   20.9106 C.ar      1 <0>        -0.2860 
     10 C10         6.0968   -9.2328   22.8484 C.ar      1 <0>        -0.1817 
     11 C11         5.0270   -9.1315   20.6428 C.ar      1 <0>        -0.3696 
     12 C12         7.2624  -11.6946   21.6117 C.ar      1 <0>         0.2750 
     13 C13         6.0121   -2.3164   22.1985 C.3       1 <0>         0.2303 
     14 C14         5.7817   -7.8774   23.0767 C.ar      1 <0>        -0.2456 
     15 C15         7.1220   -3.2069   22.7292 C.ar      1 <0>         0.3700 
     16 C16         4.2255   -3.1886   20.5951 C.ar      1 <0>         0.0180 
     17 C17         5.7282   -9.8557   21.6320 C.ar      1 <0>         0.1249 
     18 C18         4.7027   -7.7743   20.8537 C.ar      1 <0>         0.4982 
     19 C19         3.8140   -4.3917   20.0611 C.ar      1 <0>        -0.0567 
     20 C20         5.1053   -7.1643   22.0710 C.ar      1 <0>         0.2299 
     21 C21         3.1515   -4.3744   18.7165 C.ar      1 <0>         0.5567 
     22 C22         4.1280   -5.7114   20.7106 C.ar      1 <0>         0.4788 
     23 N1          3.0311   -3.1780   18.1113 N.pl3     1 <0>        -0.3513 
     24 N2          4.7026   -5.8506   21.9262 N.pl3     1 <0>        -0.6257 
     25 N3          7.3747  -12.9831   21.3104 N.2       1 <0>        -0.5630 
     26 N4          7.5212   -2.9915   24.0012 N.ar      1 <0>        -0.6780 
     27 N5          4.0532   -6.8685   20.0395 N.2       1 <0>        -0.6787 
     28 N6          4.8071   -3.0579   21.8505 N.pl3     1 <0>        -0.6070 
     29 N7          6.0302  -11.2120   21.3967 N.pl3     1 <0>        -0.0735 
     30 O1          2.7029   -5.3483   18.1115 O.2       1 <0>        -0.5000 
     31 H1          6.7209   -7.8658   25.0314 H         1 <0>         0.0600 
     32 H2          6.7646   -6.3159   24.1907 H         1 <0>         0.0600 
     33 H3          5.2617   -6.8801   24.9109 H         1 <0>         0.0600 
     34 H4          9.1297   -5.8187   21.8381 H         1 <0>         0.0650 
     35 H5          9.8913   -5.4223   24.1966 H         1 <0>         0.1550 
     36 H6          7.3059   -4.3595   20.9112 H         1 <0>         0.1550 
     37 H7          4.4887   -1.0287   20.1830 H         1 <0>         0.1150 
     38 H8          3.3807   -1.1286   17.9797 H         1 <0>         0.1150 
     39 H9          8.8135   -3.5810   25.5105 H         1 <0>         0.0120 
     40 H10         5.8867  -14.3512   20.5423 H         1 <0>         0.0750 
     41 H11         4.2176  -12.1343   20.6402 H         1 <0>         0.1870 
     42 H12         6.6084   -9.8018   23.6117 H         1 <0>         0.1607 
     43 H13         4.7369   -9.6067   19.7170 H         1 <0>         0.2091 
     44 H14         8.0882  -11.1018   21.9804 H         1 <0>         0.0780 
     45 H15         5.7576   -1.5592   22.9406 H         1 <0>         0.0600 
     46 H16         6.3932   -1.7873   21.3250 H         1 <0>         0.0600 
     47 H17         2.5569   -3.1473   17.2137 H         1 <0>         0.3000 
     48 H18         4.9529   -5.0774   22.5204 H         1 <0>         0.4072 
     49 H19         4.2853   -3.4088   22.6406 H         1 <0>         0.3537 
@<TRIPOS>BOND
     1    1   14 1    
     2    1   31 1    
     3    1   32 1    
     4    1   33 1    
     5    2    3 ar   
     6    2    4 ar   
     7    2   34 1    
     8    3    7 ar   
     9    3   35 1    
    10    4   15 ar   
    11    4   36 1    
    12    5    6 ar   
    13    5   16 ar   
    14    5   37 1    
    15    6   23 ar   
    16    6   38 1    
    17    7   26 ar   
    18    7   39 1    
    19    8    9 ar   
    20    8   25 ar   
    21    8   40 1    
    22    9   29 ar   
    23    9   41 1    
    24   10   14 ar   
    25   10   17 ar   
    26   10   42 1    
    27   11   17 ar   
    28   11   18 ar   
    29   11   43 1    
    30   12   25 ar   
    31   12   29 ar   
    32   12   44 1    
    33   13   15 1    
    34   13   28 1    
    35   13   45 1    
    36   13   46 1    
    37   14   20 ar   
    38   15   26 ar   
    39   16   19 ar   
    40   16   28 1    
    41   17   29 1    
    42   18   20 ar   
    43   18   27 ar   
    44   19   21 ar   
    45   19   22 1    
    46   20   24 ar   
    47   21   23 ar   
    48   21   30 2    
    49   22   24 ar   
    50   22   27 ar   
    51   23   47 1    
    52   24   48 1    
    53   28   49 1    
@<TRIPOS>SUBSTRUCTURE
     1 <0>         1 GROUP             0       ****    0 ROOT    
@<TRIPOS>MOLECULE
igf1r-ligand
49   53    1
SMALL
USER_CHARGES


@<TRIPOS>ATOM
      1 C1          6.3833   -7.3940   24.2154 C.3       1 <0>        -0.0650 
      2 C2          8.6956   -4.0218   24.3249 C.ar      1 <0>         0.2270 
      3 C3          9.2216   -4.9483   23.4059 C.ar      1 <0>        -0.4470 
      4 C4          7.6476   -3.1759   23.9100 C.ar      1 <0>        -0.4470 
      5 C5          3.9962   -2.0761   19.8343 C.ar      1 <0>        -0.1150 
      6 C6          3.4225   -2.1114   18.6333 C.ar      1 <0>        -0.0637 
      7 C7          8.6737   -4.9943   22.1106 C.ar      1 <0>         0.4730 
      8 C8          6.7104  -13.4521   21.1185 C.ar      1 <0>         0.1850 
      9 C9          7.0642  -12.1642   21.4563 C.ar      1 <0>        -0.2860 
     10 C10         6.1331   -9.4292   22.7005 C.ar      1 <0>        -0.1817 
     11 C11         4.9432   -9.2842   20.5620 C.ar      1 <0>        -0.3696 
     12 C12         4.9378  -12.2484   20.9123 C.ar      1 <0>         0.2750 
     13 C13         6.0372   -2.4224   22.0859 C.3       1 <0>         0.2303 
     14 C14         5.9028   -8.0574   22.9399 C.ar      1 <0>        -0.2456 
     15 C15         7.1658   -3.3020   22.5923 C.ar      1 <0>         0.3700 
     16 C16         4.1884   -3.3016   20.5918 C.ar      1 <0>         0.0180 
     17 C17         5.6551  -10.0422   21.5191 C.ar      1 <0>         0.1249 
     18 C18         4.7026   -7.9115   20.7868 C.ar      1 <0>         0.4982 
     19 C19         3.8089   -4.5133   20.0555 C.ar      1 <0>        -0.0567 
     20 C20         5.2056   -7.3145   21.9711 C.ar      1 <0>         0.2299 
     21 C21         3.1351   -4.5076   18.7162 C.ar      1 <0>         0.5567 
     22 C22         4.1812   -5.8315   20.6788 C.ar      1 <0>         0.4788 
     23 N1          2.9927   -3.3155   18.1110 N.pl3     1 <0>        -0.3513 
     24 N2          4.8587   -5.9813   21.8389 N.pl3     1 <0>        -0.6257 
     25 N3          5.3572  -13.5016   20.7757 N.2       1 <0>        -0.5630 
     26 N4          7.6579   -4.1992   21.7112 N.ar      1 <0>        -0.6780 
     27 N5          4.0252   -6.9865   20.0215 N.2       1 <0>        -0.6787 
     28 N6          4.8082   -3.1591   21.8251 N.pl3     1 <0>        -0.6070 
     29 N7          5.9104  -11.4132   21.3037 N.pl3     1 <0>        -0.0735 
     30 O1          2.7028   -5.4874   18.1111 O.2       1 <0>        -0.5000 
     31 H1          6.8141   -8.1159   24.9089 H         1 <0>         0.0600 
     32 H2          7.1419   -6.6482   23.9887 H         1 <0>         0.0600 
     33 H3          5.5557   -6.8940   24.7192 H         1 <0>         0.0600 
     34 H4          9.0933   -3.9561   25.3269 H         1 <0>         0.0650 
     35 H5         10.0358   -5.6041   23.6779 H         1 <0>         0.1550 
     36 H6          7.2321   -2.4445   24.5871 H         1 <0>         0.1550 
     37 H7          4.3427   -1.1267   20.2079 H         1 <0>         0.1150 
     38 H8          3.2600   -1.2541   17.9971 H         1 <0>         0.1150 
     39 H9          9.0523   -5.6910   21.3770 H         1 <0>         0.0120 
     40 H10         7.3214  -14.3430   21.1003 H         1 <0>         0.0750 
     41 H11         8.0030  -11.7372   21.7746 H         1 <0>         0.1870 
     42 H12         6.6624  -10.0238   23.4317 H         1 <0>         0.1607 
     43 H13         4.5780   -9.7423   19.6543 H         1 <0>         0.2091 
     44 H14         3.9136  -11.9505   20.7280 H         1 <0>         0.0780 
     45 H15         5.8294   -1.6382   22.8127 H         1 <0>         0.0600 
     46 H16         6.3765   -1.9254   21.1766 H         1 <0>         0.0600 
     47 H17         2.5252   -3.2971   17.2078 H         1 <0>         0.3000 
     48 H18         5.2207   -5.2182   22.3844 H         1 <0>         0.4072 
     49 H19         4.4717   -3.7236   22.5888 H         1 <0>         0.3537 
@<TRIPOS>BOND
     1    1   14 1    
     2    1   31 1    
     3    1   32 1    
     4    1   33 1    
     5    2    3 ar   
     6    2    4 ar   
     7    2   34 1    
     8    3    7 ar   
     9    3   35 1    
    10    4   15 ar   
    11    4   36 1    
    12    5    6 ar   
    13    5   16 ar   
    14    5   37 1    
    15    6   23 ar   
    16    6   38 1    
    17    7   26 ar   
    18    7   39 1    
    19    8    9 ar   
    20    8   25 ar   
    21    8   40 1    
    22    9   29 ar   
    23    9   41 1    
    24   10   14 ar   
    25   10   17 ar   
    26   10   42 1    
    27   11   17 ar   
    28   11   18 ar   
    29   11   43 1    
    30   12   25 ar   
    31   12   29 ar   
    32   12   44 1    
    33   13   15 1    
    34   13   28 1    
    35   13   45 1    
    36   13   46 1    
    37   14   20 ar   
    38   15   26 ar   
    39   16   19 ar   
    40   16   28 1    
    41   17   29 1    
    42   18   20 ar   
    43   18   27 ar   
    44   19   21 ar   
    45   19   22 1    
    46   20   24 ar   
    47   21   23 ar   
    48   21   30 2    
    49   22   24 ar   
    50   22   27 ar   
    51   23   47 1    
    52   24   48 1    
    53   28   49 1    
@<TRIPOS>SUBSTRUCTURE
     1 <0>         1 GROUP             0       ****    0 ROOT    
@<TRIPOS>MOLECULE
igf1r-ligand
49   53    1
SMALL
USER_CHARGES


@<TRIPOS>ATOM
      1 C1          6.2990   -7.2636   24.4356 C.3       1 <0>        -0.0650 
      2 C2          9.1014   -4.7960   22.2483 C.ar      1 <0>         0.2270 
      3 C3          9.2000   -4.9036   23.6454 C.ar      1 <0>        -0.4470 
      4 C4          8.1164   -3.9445   21.7109 C.ar      1 <0>        -0.4470 
      5 C5          4.0878   -2.0229   19.8012 C.ar      1 <0>        -0.1150 
      6 C6          3.5027   -2.0939   18.6040 C.ar      1 <0>        -0.0637 
      7 C7          8.3060   -4.1636   24.4404 C.ar      1 <0>         0.4730 
      8 C8          7.1287  -13.2264   21.2847 C.ar      1 <0>         0.1850 
      9 C9          7.3502  -11.9390   21.7214 C.ar      1 <0>        -0.2860 
     10 C10         6.1922   -9.2894   22.9046 C.ar      1 <0>        -0.1817 
     11 C11         5.1024   -9.1755   20.7135 C.ar      1 <0>        -0.3696 
     12 C12         5.3178  -12.1247   20.9118 C.ar      1 <0>         0.2750 
     13 C13         6.1698   -2.3471   22.0521 C.3       1 <0>         0.2303 
     14 C14         5.8852   -7.9331   23.1419 C.ar      1 <0>        -0.2456 
     15 C15         7.2627   -3.2511   22.5905 C.ar      1 <0>         0.3700 
     16 C16         4.2775   -3.2266   20.5991 C.ar      1 <0>         0.0180 
     17 C17         5.8084   -9.9099   21.6938 C.ar      1 <0>         0.1249 
     18 C18         4.7989   -7.8150   20.9272 C.ar      1 <0>         0.4982 
     19 C19         3.8751   -4.4497   20.1107 C.ar      1 <0>        -0.0567 
     20 C20         5.2085   -7.2071   22.1431 C.ar      1 <0>         0.2299 
     21 C21         3.1783   -4.4788   18.7785 C.ar      1 <0>         0.5567 
     22 C22         4.2320   -5.7502   20.7815 C.ar      1 <0>         0.4788 
     23 N1          3.0682   -3.3105   18.1138 N.pl3     1 <0>        -0.3513 
     24 N2          4.8138   -5.8865   21.9974 N.pl3     1 <0>        -0.6257 
     25 N3          5.8339  -13.3410   20.7737 N.2       1 <0>        -0.5630 
     26 N4          7.3403   -3.3645   23.9335 N.ar      1 <0>        -0.6780 
     27 N5          4.1670   -6.9052   20.1099 N.2       1 <0>        -0.6787 
     28 N6          4.9221   -3.0576   21.8168 N.pl3     1 <0>        -0.6070 
     29 N7          6.1745  -11.2533   21.4618 N.pl3     1 <0>        -0.0735 
     30 O1          2.7026   -5.4726   18.2295 O.2       1 <0>        -0.5000 
     31 H1          6.6916   -7.9810   25.1562 H         1 <0>         0.0600 
     32 H2          7.0796   -6.5364   24.2354 H         1 <0>         0.0600 
     33 H3          5.4553   -6.7435   24.8895 H         1 <0>         0.0600 
     34 H4          9.7761   -5.3460   21.6108 H         1 <0>         0.0650 
     35 H5          9.9505   -5.5373   24.0945 H         1 <0>         0.1550 
     36 H6          8.0248   -3.8095   20.6443 H         1 <0>         0.1550 
     37 H7          4.4426   -1.0640   20.1457 H         1 <0>         0.1150 
     38 H8          3.3424   -1.2544   17.9436 H         1 <0>         0.1150 
     39 H9          8.3639   -4.2368   25.5141 H         1 <0>         0.0120 
     40 H10         7.7952  -14.0759   21.3019 H         1 <0>         0.0750 
     41 H11         8.2140  -11.4720   22.1708 H         1 <0>         0.1870 
     42 H12         6.7239   -9.8606   23.6526 H         1 <0>         0.1607 
     43 H13         4.8149   -9.6312   19.7770 H         1 <0>         0.2091 
     44 H14         4.3091  -11.8779   20.6119 H         1 <0>         0.0780 
     45 H15         5.9887   -1.5363   22.7585 H         1 <0>         0.0600 
     46 H16         6.5194   -1.8869   21.1271 H         1 <0>         0.0600 
     47 H17         2.5849   -3.3032   17.2200 H         1 <0>         0.3000 
     48 H18         5.0546   -5.1234   22.6072 H         1 <0>         0.4072 
     49 H19         4.5072   -3.4707   22.6381 H         1 <0>         0.3537 
@<TRIPOS>BOND
     1    1   14 1    
     2    1   31 1    
     3    1   32 1    
     4    1   33 1    
     5    2    3 ar   
     6    2    4 ar   
     7    2   34 1    
     8    3    7 ar   
     9    3   35 1    
    10    4   15 ar   
    11    4   36 1    
    12    5    6 ar   
    13    5   16 ar   
    14    5   37 1    
    15    6   23 ar   
    16    6   38 1    
    17    7   26 ar   
    18    7   39 1    
    19    8    9 ar   
    20    8   25 ar   
    21    8   40 1    
    22    9   29 ar   
    23    9   41 1    
    24   10   14 ar   
    25   10   17 ar   
    26   10   42 1    
    27   11   17 ar   
    28   11   18 ar   
    29   11   43 1    
    30   12   25 ar   
    31   12   29 ar   
    32   12   44 1    
    33   13   15 1    
    34   13   28 1    
    35   13   45 1    
    36   13   46 1    
    37   14   20 ar   
    38   15   26 ar   
    39   16   19 ar   
    40   16   28 1    
    41   17   29 1    
    42   18   20 ar   
    43   18   27 ar   
    44   19   21 ar   
    45   19   22 1    
    46   20   24 ar   
    47   21   23 ar   
    48   21   30 2    
    49   22   24 ar   
    50   22   27 ar   
    51   23   47 1    
    52   24   48 1    
    53   28   49 1    
@<TRIPOS>SUBSTRUCTURE
     1 <0>         1 GROUP             0       ****    0 ROOT    
@<TRIPOS>MOLECULE
igf1r-ligand
49   53    1
SMALL
USER_CHARGES


@<TRIPOS>ATOM
      1 C1          6.3326   -7.2796   24.5027 C.3       1 <0>        -0.0650 
      2 C2          9.1978   -4.9016   22.3118 C.ar      1 <0>         0.2270 
      3 C3          9.2939   -4.9096   23.7127 C.ar      1 <0>        -0.4470 
      4 C4          8.2106   -4.0987   21.7104 C.ar      1 <0>        -0.4470 
      5 C5          4.0279   -2.1954   19.8028 C.ar      1 <0>        -0.1150 
      6 C6          3.4573   -2.2927   18.6003 C.ar      1 <0>        -0.0637 
      7 C7          8.3960   -4.1182   24.4493 C.ar      1 <0>         0.4730 
      8 C8          6.8332  -13.3653   20.8370 C.ar      1 <0>         0.1850 
      9 C9          6.5919  -12.0660   20.4522 C.ar      1 <0>        -0.2860 
     10 C10         6.2981   -9.3526   23.0298 C.ar      1 <0>        -0.1817 
     11 C11         5.2439   -9.3235   20.8214 C.ar      1 <0>        -0.3696 
     12 C12         6.3265  -12.2708   22.6164 C.ar      1 <0>         0.2750 
     13 C13         6.2479   -2.4963   21.9282 C.3       1 <0>         0.2303 
     14 C14         5.9579   -7.9976   23.2221 C.ar      1 <0>        -0.2456 
     15 C15         7.3450   -3.3536   22.5352 C.ar      1 <0>         0.3700 
     16 C16         4.2836   -3.3935   20.5890 C.ar      1 <0>         0.0180 
     17 C17         5.9350  -10.0238   21.8355 C.ar      1 <0>         0.1249 
     18 C18         4.9240   -7.9585   20.9800 C.ar      1 <0>         0.4982 
     19 C19         3.9024   -4.6281   20.1112 C.ar      1 <0>        -0.0567 
     20 C20         5.2840   -7.3153   22.1934 C.ar      1 <0>         0.2299 
     21 C21         3.1791   -4.6849   18.7990 C.ar      1 <0>         0.5567 
     22 C22         4.2996   -5.9146   20.7839 C.ar      1 <0>         0.4788 
     23 N1          3.0629   -3.5279   18.1132 N.pl3     1 <0>        -0.3513 
     24 N2          4.8455   -6.0145   22.0175 N.pl3     1 <0>        -0.6257 
     25 N3          6.6641  -13.4916   22.2166 N.2       1 <0>        -0.5630 
     26 N4          7.4244   -3.3656   23.8842 N.ar      1 <0>        -0.6780 
     27 N5          4.3022   -7.0777   20.1188 N.2       1 <0>        -0.6787 
     28 N6          4.9894   -3.2116   21.7722 N.pl3     1 <0>        -0.6070 
     29 N7          6.2791  -11.3799   21.6151 N.pl3     1 <0>        -0.0735 
     30 O1          2.7027   -5.6970   18.2857 O.2       1 <0>        -0.5000 
     31 H1          6.7028   -7.9703   25.2597 H         1 <0>         0.0600 
     32 H2          7.1172   -6.5538   24.3032 H         1 <0>         0.0600 
     33 H3          5.4747   -6.7455   24.9112 H         1 <0>         0.0600 
     34 H4          9.8819   -5.4862   21.7153 H         1 <0>         0.0650 
     35 H5         10.0480   -5.5006   24.2095 H         1 <0>         0.1550 
     36 H6          8.1318   -4.0413   20.6380 H         1 <0>         0.1550 
     37 H7          4.3225   -1.2228   20.1622 H         1 <0>         0.1150 
     38 H8          3.2502   -1.4596   17.9453 H         1 <0>         0.1150 
     39 H9          8.4602   -4.1064   25.5254 H         1 <0>         0.0120 
     40 H10         7.1064  -14.2159   20.2297 H         1 <0>         0.0750 
     41 H11         6.6145  -11.5960   19.4808 H         1 <0>         0.1870 
     42 H12         6.8425   -9.8737   23.8035 H         1 <0>         0.1607 
     43 H13         4.9637   -9.8208   19.9044 H         1 <0>         0.2091 
     44 H14         6.1127  -12.0429   23.6505 H         1 <0>         0.0780 
     45 H15         6.0847   -1.6218   22.5587 H         1 <0>         0.0600 
     46 H16         6.5868   -2.1259   20.9590 H         1 <0>         0.0600 
     47 H17         2.5814   -3.5383   17.2198 H         1 <0>         0.3000 
     48 H18         5.0205   -5.2315   22.6247 H         1 <0>         0.4072 
     49 H19         4.5289   -3.4469   22.6383 H         1 <0>         0.3537 
@<TRIPOS>BOND
     1    1   14 1    
     2    1   31 1    
     3    1   32 1    
     4    1   33 1    
     5    2    3 ar   
     6    2    4 ar   
     7    2   34 1    
     8    3    7 ar   
     9    3   35 1    
    10    4   15 ar   
    11    4   36 1    
    12    5    6 ar   
    13    5   16 ar   
    14    5   37 1    
    15    6   23 ar   
    16    6   38 1    
    17    7   26 ar   
    18    7   39 1    
    19    8    9 ar   
    20    8   25 ar   
    21    8   40 1    
    22    9   29 ar   
    23    9   41 1    
    24   10   14 ar   
    25   10   17 ar   
    26   10   42 1    
    27   11   17 ar   
    28   11   18 ar   
    29   11   43 1    
    30   12   25 ar   
    31   12   29 ar   
    32   12   44 1    
    33   13   15 1    
    34   13   28 1    
    35   13   45 1    
    36   13   46 1    
    37   14   20 ar   
    38   15   26 ar   
    39   16   19 ar   
    40   16   28 1    
    41   17   29 1    
    42   18   20 ar   
    43   18   27 ar   
    44   19   21 ar   
    45   19   22 1    
    46   20   24 ar   
    47   21   23 ar   
    48   21   30 2    
    49   22   24 ar   
    50   22   27 ar   
    51   23   47 1    
    52   24   48 1    
    53   28   49 1    
@<TRIPOS>SUBSTRUCTURE
     1 <0>         1 GROUP             0       ****    0 ROOT    
@<TRIPOS>MOLECULE
igf1r-ligand
49   53    1
SMALL
USER_CHARGES


@<TRIPOS>ATOM
      1 C1          6.2882   -7.1581   24.4470 C.3       1 <0>        -0.0650 
      2 C2          8.7010   -3.9635   24.3769 C.ar      1 <0>         0.2270 
      3 C3          9.2574   -4.9071   23.4940 C.ar      1 <0>        -0.4470 
      4 C4          7.6901   -3.1045   23.9005 C.ar      1 <0>        -0.4470 
      5 C5          4.0948   -2.0031   19.7757 C.ar      1 <0>        -0.1150 
      6 C6          3.5043   -2.0776   18.5830 C.ar      1 <0>        -0.0637 
      7 C7          8.7794   -4.9536   22.1712 C.ar      1 <0>         0.4730 
      8 C8          6.2442  -13.3305   20.9215 C.ar      1 <0>         0.1850 
      9 C9          5.4127  -12.2328   20.9108 C.ar      1 <0>        -0.2860 
     10 C10         6.2046   -9.2159   22.9476 C.ar      1 <0>        -0.1817 
     11 C11         5.1026   -9.1488   20.7597 C.ar      1 <0>        -0.3696 
     12 C12         7.3351  -11.7168   21.8335 C.ar      1 <0>         0.2750 
     13 C13         6.1964   -2.3351   21.9865 C.3       1 <0>         0.2303 
     14 C14         5.8924   -7.8566   23.1605 C.ar      1 <0>        -0.2456 
     15 C15         7.2796   -3.2310   22.5581 C.ar      1 <0>         0.3700 
     16 C16         4.2778   -3.2030   20.5797 C.ar      1 <0>         0.0180 
     17 C17         5.8218   -9.8589   21.7450 C.ar      1 <0>         0.1249 
     18 C18         4.7967   -7.7854   20.9462 C.ar      1 <0>         0.4982 
     19 C19         3.8723   -4.4284   20.0976 C.ar      1 <0>        -0.0567 
     20 C20         5.2116   -7.1555   22.1490 C.ar      1 <0>         0.2299 
     21 C21         3.1721   -4.4627   18.7709 C.ar      1 <0>         0.5567 
     22 C22         4.2259   -5.7267   20.7708 C.ar      1 <0>         0.4788 
     23 N1          3.0513   -3.2947   18.1110 N.pl3     1 <0>        -0.3513 
     24 N2          4.8136   -5.8417   21.9833 N.pl3     1 <0>        -0.6257 
     25 N3          7.4684  -12.9971   21.5065 N.2       1 <0>        -0.5630 
     26 N4          7.8033   -4.1423   21.7111 N.ar      1 <0>        -0.6780 
     27 N5          4.1551   -6.8934   20.1154 N.2       1 <0>        -0.6787 
     28 N6          4.9280   -3.0228   21.7922 N.pl3     1 <0>        -0.6070 
     29 N7          6.1361  -11.2144   21.5089 N.pl3     1 <0>        -0.0735 
     30 O1          2.7029   -5.4597   18.2227 O.2       1 <0>        -0.5000 
     31 H1          6.7172   -7.8545   25.1673 H         1 <0>         0.0600 
     32 H2          7.0255   -6.3843   24.2450 H         1 <0>         0.0600 
     33 H3          5.4214   -6.6850   24.9088 H         1 <0>         0.0600 
     34 H4          9.0486   -3.8966   25.3974 H         1 <0>         0.0650 
     35 H5         10.0426   -5.5766   23.8142 H         1 <0>         0.1550 
     36 H6          7.2514   -2.3608   24.5478 H         1 <0>         0.1550 
     37 H7          4.4614   -1.0453   20.1110 H         1 <0>         0.1150 
     38 H8          3.3482   -1.2431   17.9154 H         1 <0>         0.1150 
     39 H9          9.1849   -5.6649   21.4664 H         1 <0>         0.0120 
     40 H10         6.0604  -14.3271   20.5479 H         1 <0>         0.0750 
     41 H11         4.4085  -12.0983   20.5367 H         1 <0>         0.1870 
     42 H12         6.7286   -9.7691   23.7137 H         1 <0>         0.1607 
     43 H13         4.8036   -9.6335   19.8417 H         1 <0>         0.2091 
     44 H14         8.1271  -11.1465   22.2969 H         1 <0>         0.0780 
     45 H15         6.0397   -1.4829   22.6477 H         1 <0>         0.0600 
     46 H16         6.5512   -1.9339   21.0367 H         1 <0>         0.0600 
     47 H17         2.5669   -3.2994   17.2175 H         1 <0>         0.3000 
     48 H18         5.0828   -5.0622   22.5579 H         1 <0>         0.4072 
     49 H19         4.5211   -3.4310   22.6187 H         1 <0>         0.3537 
@<TRIPOS>BOND
     1    1   14 1    
     2    1   31 1    
     3    1   32 1    
     4    1   33 1    
     5    2    3 ar   
     6    2    4 ar   
     7    2   34 1    
     8    3    7 ar   
     9    3   35 1    
    10    4   15 ar   
    11    4   36 1    
    12    5    6 ar   
    13    5   16 ar   
    14    5   37 1    
    15    6   23 ar   
    16    6   38 1    
    17    7   26 ar   
    18    7   39 1    
    19    8    9 ar   
    20    8   25 ar   
    21    8   40 1    
    22    9   29 ar   
    23    9   41 1    
    24   10   14 ar   
    25   10   17 ar   
    26   10   42 1    
    27   11   17 ar   
    28   11   18 ar   
    29   11   43 1    
    30   12   25 ar   
    31   12   29 ar   
    32   12   44 1    
    33   13   15 1    
    34   13   28 1    
    35   13   45 1    
    36   13   46 1    
    37   14   20 ar   
    38   15   26 ar   
    39   16   19 ar   
    40   16   28 1    
    41   17   29 1    
    42   18   20 ar   
    43   18   27 ar   
    44   19   21 ar   
    45   19   22 1    
    46   20   24 ar   
    47   21   23 ar   
    48   21   30 2    
    49   22   24 ar   
    50   22   27 ar   
    51   23   47 1    
    52   24   48 1    
    53   28   49 1    
@<TRIPOS>SUBSTRUCTURE
     1 <0>         1 GROUP             0       ****    0 ROOT    
@<TRIPOS>MOLECULE
igf1r-ligand
49   53    1
SMALL
USER_CHARGES


@<TRIPOS>ATOM
      1 C1          9.6418   -4.9015   24.2182 C.3       1 <0>        -0.0650 
      2 C2          3.5024   -2.8962   17.7108 C.ar      1 <0>         0.2270 
      3 C3          3.8390   -1.9132   18.6551 C.ar      1 <0>        -0.4470 
      4 C4          3.3216   -4.2254   18.1317 C.ar      1 <0>        -0.4470 
      5 C5          4.3535   -9.2672   20.0327 C.ar      1 <0>        -0.1150 
      6 C6          4.7624  -10.3603   20.6830 C.ar      1 <0>        -0.0637 
      7 C7          3.9866   -2.3175   19.9899 C.ar      1 <0>         0.4730 
      8 C8          6.0066    0.9248   24.9625 C.ar      1 <0>         0.1850 
      9 C9          6.2770   -0.3904   25.2594 C.ar      1 <0>        -0.2860 
     10 C10         8.0459   -2.9310   24.1114 C.ar      1 <0>        -0.1817 
     11 C11         5.9024   -3.1194   22.9781 C.ar      1 <0>        -0.3696 
     12 C12         6.3025   -0.1066   23.0979 C.ar      1 <0>         0.2750 
     13 C13         3.2550   -5.9327   20.0221 C.3       1 <0>         0.2303 
     14 C14         8.3277   -4.2835   23.8066 C.ar      1 <0>        -0.2456 
     15 C15         3.4763   -4.5220   19.4986 C.ar      1 <0>         0.3700 
     16 C16         4.7298   -7.9497   20.5138 C.ar      1 <0>         0.0180 
     17 C17         6.8276   -2.3499   23.7039 C.ar      1 <0>         0.1249 
     18 C18         6.1262   -4.4888   22.7298 C.ar      1 <0>         0.4982 
     19 C19         5.5413   -7.8355   21.6234 C.ar      1 <0>        -0.0567 
     20 C20         7.3618   -5.0528   23.1311 C.ar      1 <0>         0.2299 
     21 C21         5.9108   -9.0651   22.3707 C.ar      1 <0>         0.5567 
     22 C22         6.0392   -6.5446   22.1660 C.ar      1 <0>         0.4788 
     23 N1          5.5148  -10.2413   21.8423 N.pl3     1 <0>        -0.3513 
     24 N2          7.2692   -6.3712   22.7057 N.pl3     1 <0>        -0.6257 
     25 N3          6.0083    1.0982   23.5804 N.2       1 <0>        -0.5630 
     26 N4          3.7728   -3.5759   20.4128 N.ar      1 <0>        -0.6780 
     27 N5          5.3010   -5.4400   22.1670 N.2       1 <0>        -0.6787 
     28 N6          4.3028   -6.8989   19.7109 N.pl3     1 <0>        -0.6070 
     29 N7          6.5032   -1.0204   24.0485 N.pl3     1 <0>        -0.0735 
     30 O1          6.5519   -9.0761   23.4204 O.2       1 <0>        -0.5000 
     31 H1         10.3275   -4.1117   24.5107 H         1 <0>         0.0600 
     32 H2          9.5018   -5.5772   25.0626 H         1 <0>         0.0600 
     33 H3         10.0901   -5.4545   23.3911 H         1 <0>         0.0600 
     34 H4          3.4153   -2.6373   16.6675 H         1 <0>         0.0650 
     35 H5          4.0198   -0.8915   18.3566 H         1 <0>         0.1550 
     36 H6          3.0756   -4.9885   17.4150 H         1 <0>         0.1550 
     37 H7          3.7604   -9.3751   19.1363 H         1 <0>         0.1150 
     38 H8          4.5378  -11.3743   20.3842 H         1 <0>         0.1150 
     39 H9          4.3095   -1.6204   20.7421 H         1 <0>         0.0120 
     40 H10         5.7814    1.7444   25.6293 H         1 <0>         0.0750 
     41 H11         6.3028   -0.8994   26.1986 H         1 <0>         0.1870 
     42 H12         8.7661   -2.3350   24.6546 H         1 <0>         0.1607 
     43 H13         4.9571   -2.6914   22.6863 H         1 <0>         0.2091 
     44 H14         6.3759   -0.3165   22.0398 H         1 <0>         0.0780 
     45 H15         3.1027   -5.8984   21.0978 H         1 <0>         0.0600 
     46 H16         2.3239   -6.2849   19.5830 H         1 <0>         0.0600 
     47 H17         5.7352  -11.0888   22.3457 H         1 <0>         0.3000 
     48 H18         7.9437   -7.1115   22.8394 H         1 <0>         0.4072 
     49 H19         4.2931   -7.1447   18.7255 H         1 <0>         0.3537 
@<TRIPOS>BOND
     1    1   14 1    
     2    1   31 1    
     3    1   32 1    
     4    1   33 1    
     5    2    3 ar   
     6    2    4 ar   
     7    2   34 1    
     8    3    7 ar   
     9    3   35 1    
    10    4   15 ar   
    11    4   36 1    
    12    5    6 ar   
    13    5   16 ar   
    14    5   37 1    
    15    6   23 ar   
    16    6   38 1    
    17    7   26 ar   
    18    7   39 1    
    19    8    9 ar   
    20    8   25 ar   
    21    8   40 1    
    22    9   29 ar   
    23    9   41 1    
    24   10   14 ar   
    25   10   17 ar   
    26   10   42 1    
    27   11   17 ar   
    28   11   18 ar   
    29   11   43 1    
    30   12   25 ar   
    31   12   29 ar   
    32   12   44 1    
    33   13   15 1    
    34   13   28 1    
    35   13   45 1    
    36   13   46 1    
    37   14   20 ar   
    38   15   26 ar   
    39   16   19 ar   
    40   16   28 1    
    41   17   29 1    
    42   18   20 ar   
    43   18   27 ar   
    44   19   21 ar   
    45   19   22 1    
    46   20   24 ar   
    47   21   23 ar   
    48   21   30 2    
    49   22   24 ar   
    50   22   27 ar   
    51   23   47 1    
    52   24   48 1    
    53   28   49 1    
@<TRIPOS>SUBSTRUCTURE
     1 <0>         1 GROUP             0       ****    0 ROOT    
