@<TRIPOS>MOLECULE
inha-ligand
39   41    1
SMALL
USER_CHARGES


@<TRIPOS>ATOM
      1 C1         14.4441   33.9268   62.7382 C.ar      1 <0>        -0.1150 
      2 C2         13.2981   34.4898   62.1408 C.ar      1 <0>        -0.1150 
      3 C3         14.3856   32.6437   63.3180 C.ar      1 <0>        -0.1150 
      4 C4         12.0276   32.4958   62.7365 C.ar      1 <0>        -0.1150 
      5 C5          6.6249   35.0507   56.9288 C.3       1 <0>        -0.1200 
      6 C6          8.2907   36.6522   60.7334 C.3       1 <0>        -0.1200 
      7 C7          9.3225   35.4032   58.9057 C.3       1 <0>        -0.0500 
      8 C8          5.4472   35.5126   56.0893 C.2       1 <0>        -0.1150 
      9 C9          5.3665   36.7315   55.5374 C.2       1 <0>        -0.1150 
     10 C10         6.4325   37.7005   55.6885 C.2       1 <0>        -0.1150 
     11 C11         7.5551   37.4084   56.3571 C.2       1 <0>        -0.1150 
     12 C12        12.0824   33.7686   62.1465 C.ar      1 <0>         0.0850 
     13 C13        13.1781   31.9231   63.2879 C.ar      1 <0>         0.2000 
     14 C14         7.8069   36.0627   57.0221 C.3       1 <0>         0.0100 
     15 C15         9.1574   35.4214   60.4317 C.3       1 <0>        -0.0600 
     16 C16         7.6398   36.9220   59.3933 C.2       1 <0>         0.5000 
     17 C17        10.5109   35.4122   61.1362 C.2       1 <0>         0.5000 
     18 N1         10.8998   34.1892   61.5088 N.am      1 <0>        -0.3850 
     19 N2          8.2352   36.2234   58.4128 N.am      1 <0>        -0.1400 
     20 O1          6.6620   37.6556   59.2813 O.2       1 <0>        -0.5000 
     21 O2         11.1235   36.4514   61.3648 O.2       1 <0>        -0.5000 
     22 Br1        13.0606   30.1527   63.9465 Br        1 <0>        -0.2000 
     23 H1         15.3819   34.4618   62.7268 H         1 <0>         0.1150 
     24 H2         13.3762   35.4564   61.6656 H         1 <0>         0.1150 
     25 H3         15.2738   32.2023   63.7477 H         1 <0>         0.1150 
     26 H4         11.1102   31.9251   62.7234 H         1 <0>         0.1150 
     27 H5          6.9871   34.1058   56.5224 H         1 <0>         0.0600 
     28 H6          6.2316   34.8158   57.9194 H         1 <0>         0.0600 
     29 H7          7.5405   36.4503   61.4990 H         1 <0>         0.0600 
     30 H8          8.8616   37.5303   61.0338 H         1 <0>         0.0600 
     31 H9         10.2669   35.8382   58.5799 H         1 <0>         0.0600 
     32 H10         9.2659   34.3869   58.5126 H         1 <0>         0.0600 
     33 H11         4.6321   34.8145   55.9674 H         1 <0>         0.1150 
     34 H12         4.4827   36.9972   54.9763 H         1 <0>         0.1150 
     35 H13         6.3242   38.6819   55.2501 H         1 <0>         0.1150 
     36 H14         8.3352   38.1525   56.4456 H         1 <0>         0.1150 
     37 H15         8.6479   35.6383   56.4698 H         1 <0>         0.0600 
     38 H16         8.5854   34.5415   60.7324 H         1 <0>         0.0600 
     39 H17        10.2203   33.4613   61.3506 H         1 <0>         0.3000 
@<TRIPOS>BOND
     1    1    2 ar   
     2    1    3 ar   
     3    1   23 1    
     4    2   12 ar   
     5    2   24 1    
     6    3   13 ar   
     7    3   25 1    
     8    4   12 ar   
     9    4   13 ar   
    10    4   26 1    
    11    5    8 1    
    12    5   14 1    
    13    5   27 1    
    14    5   28 1    
    15    6   15 1    
    16    6   16 1    
    17    6   29 1    
    18    6   30 1    
    19    7   15 1    
    20    7   19 1    
    21    7   31 1    
    22    7   32 1    
    23    8    9 2    
    24    8   33 1    
    25    9   10 1    
    26    9   34 1    
    27   10   11 2    
    28   10   35 1    
    29   11   14 1    
    30   11   36 1    
    31   12   18 1    
    32   13   22 1    
    33   14   19 1    
    34   14   37 1    
    35   15   17 1    
    36   15   38 1    
    37   16   19 am   BACKBONE|DICT|INTERRES
    38   16   20 2    
    39   17   18 am   BACKBONE|DICT|INTERRES
    40   17   21 2    
    41   18   39 1    
@<TRIPOS>SUBSTRUCTURE
     1 <0>         1 GROUP             0       ****    0 ROOT    
@<TRIPOS>MOLECULE
inha-ligand
39   41    1
SMALL
USER_CHARGES


@<TRIPOS>ATOM
      1 C1         13.0100   31.2550   63.5357 C.ar      1 <0>        -0.1150 
      2 C2         11.9702   31.9304   62.8713 C.ar      1 <0>        -0.1150 
      3 C3         14.2612   31.8766   63.6773 C.ar      1 <0>        -0.1150 
      4 C4         13.4530   33.8300   62.4676 C.ar      1 <0>        -0.1150 
      5 C5          6.7562   35.2015   57.3351 C.3       1 <0>        -0.1200 
      6 C6          8.9720   36.6824   60.8207 C.3       1 <0>        -0.1200 
      7 C7          9.6210   35.2347   58.9778 C.3       1 <0>        -0.0500 
      8 C8          5.6228   35.6178   56.4177 C.2       1 <0>        -0.1150 
      9 C9          5.6160   36.7757   55.7433 C.2       1 <0>        -0.1150 
     10 C10         6.7220   37.7074   55.8294 C.2       1 <0>        -0.1150 
     11 C11         7.8452   37.3974   56.4946 C.2       1 <0>        -0.1150 
     12 C12        12.1785   33.2200   62.3365 C.ar      1 <0>         0.0850 
     13 C13        14.4891   33.1530   63.1398 C.ar      1 <0>         0.2000 
     14 C14         8.0444   36.0683   57.2143 C.3       1 <0>         0.0100 
     15 C15         9.5544   35.2919   60.5099 C.3       1 <0>        -0.0600 
     16 C16         8.2991   37.0678   59.5195 C.2       1 <0>         0.5000 
     17 C17        10.9185   35.0334   61.1532 C.2       1 <0>         0.5000 
     18 N1         11.0748   33.7969   61.6540 N.am      1 <0>        -0.3850 
     19 N2          8.6614   36.2309   58.5321 N.am      1 <0>        -0.1400 
     20 O1          7.4922   37.9946   59.4468 O.2       1 <0>        -0.5000 
     21 O2         11.7519   35.9307   61.2261 O.2       1 <0>        -0.5000 
     22 Br1        16.2166   33.9309   63.3175 Br        1 <0>        -0.2000 
     23 H1         12.8470   30.2679   63.9431 H         1 <0>         0.1150 
     24 H2         11.0084   31.4479   62.7734 H         1 <0>         0.1150 
     25 H3         15.0610   31.3706   64.1897 H         1 <0>         0.1150 
     26 H4         13.6707   34.8018   62.0543 H         1 <0>         0.1150 
     27 H5          6.9993   34.1555   57.1467 H         1 <0>         0.0600 
     28 H6          6.3559   35.2399   58.3491 H         1 <0>         0.0600 
     29 H7          8.2496   36.6499   61.6366 H         1 <0>         0.0600 
     30 H8          9.7299   37.4287   61.0564 H         1 <0>         0.0600 
     31 H9         10.6115   35.4924   58.5955 H         1 <0>         0.0600 
     32 H10         9.3675   34.2402   58.6082 H         1 <0>         0.0600 
     33 H11         4.7743   34.9522   56.3539 H         1 <0>         0.1150 
     34 H12         4.7586   37.0247   55.1362 H         1 <0>         0.1150 
     35 H13         6.6467   38.6707   55.3463 H         1 <0>         0.1150 
     36 H14         8.6578   38.1099   56.5336 H         1 <0>         0.1150 
     37 H15         8.7525   35.5266   56.5859 H         1 <0>         0.0600 
     38 H16         8.8376   34.5457   60.8591 H         1 <0>         0.0600 
     39 H17        10.2675   33.1981   61.5688 H         1 <0>         0.3000 
@<TRIPOS>BOND
     1    1    2 ar   
     2    1    3 ar   
     3    1   23 1    
     4    2   12 ar   
     5    2   24 1    
     6    3   13 ar   
     7    3   25 1    
     8    4   12 ar   
     9    4   13 ar   
    10    4   26 1    
    11    5    8 1    
    12    5   14 1    
    13    5   27 1    
    14    5   28 1    
    15    6   15 1    
    16    6   16 1    
    17    6   29 1    
    18    6   30 1    
    19    7   15 1    
    20    7   19 1    
    21    7   31 1    
    22    7   32 1    
    23    8    9 2    
    24    8   33 1    
    25    9   10 1    
    26    9   34 1    
    27   10   11 2    
    28   10   35 1    
    29   11   14 1    
    30   11   36 1    
    31   12   18 1    
    32   13   22 1    
    33   14   19 1    
    34   14   37 1    
    35   15   17 1    
    36   15   38 1    
    37   16   19 am   BACKBONE|DICT|INTERRES
    38   16   20 2    
    39   17   18 am   BACKBONE|DICT|INTERRES
    40   17   21 2    
    41   18   39 1    
@<TRIPOS>SUBSTRUCTURE
     1 <0>         1 GROUP             0       ****    0 ROOT    
@<TRIPOS>MOLECULE
inha-ligand
39   41    1
SMALL
USER_CHARGES


@<TRIPOS>ATOM
      1 C1         14.2875   34.0130   62.4975 C.ar      1 <0>        -0.1150 
      2 C2         13.3686   34.8650   61.8572 C.ar      1 <0>        -0.1150 
      3 C3         13.8606   32.7848   63.0214 C.ar      1 <0>        -0.1150 
      4 C4         11.5868   33.2634   62.2558 C.ar      1 <0>        -0.1150 
      5 C5          4.3564   35.9316   59.1726 C.3       1 <0>        -0.1200 
      6 C6          8.8963   36.2572   58.4404 C.3       1 <0>        -0.1200 
      7 C7          7.8273   36.5829   60.5907 C.3       1 <0>        -0.0500 
      8 C8          3.3071   34.8355   59.0672 C.2       1 <0>        -0.1150 
      9 C9          3.4725   33.5985   59.5622 C.2       1 <0>        -0.1150 
     10 C10         4.6884   33.2221   60.2473 C.2       1 <0>        -0.1150 
     11 C11         5.6508   34.1221   60.5033 C.2       1 <0>        -0.1150 
     12 C12        12.0155   34.4992   61.7165 C.ar      1 <0>         0.0850 
     13 C13        12.5146   32.4133   62.8850 C.ar      1 <0>         0.2000 
     14 C14         5.5587   35.5928   60.1129 C.3       1 <0>         0.0100 
     15 C15         9.2124   36.4135   59.9359 C.3       1 <0>        -0.0600 
     16 C16         7.4291   35.8634   58.4235 C.2       1 <0>         0.5000 
     17 C17         9.9642   35.1850   60.4781 C.2       1 <0>         0.5000 
     18 N1         11.1479   35.4232   61.0710 N.am      1 <0>        -0.3850 
     19 N2          6.8620   36.0682   59.6255 N.am      1 <0>        -0.1400 
     20 O1          6.8963   35.3781   57.4254 O.2       1 <0>        -0.5000 
     21 O2          9.4704   34.0660   60.3372 O.2       1 <0>        -0.5000 
     22 Br1        11.9580   30.7309   63.5362 Br        1 <0>        -0.2000 
     23 H1         15.3224   34.3094   62.5901 H         1 <0>         0.1150 
     24 H2         13.7162   35.8131   61.4775 H         1 <0>         0.1150 
     25 H3         14.5637   32.1254   63.5099 H         1 <0>         0.1150 
     26 H4         10.5565   32.9475   62.1974 H         1 <0>         0.1150 
     27 H5          3.8629   36.8322   59.5380 H         1 <0>         0.0600 
     28 H6          4.6686   36.1699   58.1582 H         1 <0>         0.0600 
     29 H7          9.0189   37.2068   57.9200 H         1 <0>         0.0600 
     30 H8          9.5120   35.5099   57.9368 H         1 <0>         0.0600 
     31 H9          7.7517   36.0556   61.5419 H         1 <0>         0.0600 
     32 H10         7.6144   37.6351   60.7833 H         1 <0>         0.0600 
     33 H11         2.3947   35.0863   58.5467 H         1 <0>         0.1150 
     34 H12         2.6857   32.8683   59.4416 H         1 <0>         0.1150 
     35 H13         4.8286   32.1960   60.5552 H         1 <0>         0.1150 
     36 H14         6.5460   33.8114   61.0250 H         1 <0>         0.1150 
     37 H15         5.3704   36.1096   61.0554 H         1 <0>         0.0600 
     38 H16         9.8162   37.3079   60.1000 H         1 <0>         0.0600 
     39 H17        11.4941   36.3691   61.0009 H         1 <0>         0.3000 
@<TRIPOS>BOND
     1    1    2 ar   
     2    1    3 ar   
     3    1   23 1    
     4    2   12 ar   
     5    2   24 1    
     6    3   13 ar   
     7    3   25 1    
     8    4   12 ar   
     9    4   13 ar   
    10    4   26 1    
    11    5    8 1    
    12    5   14 1    
    13    5   27 1    
    14    5   28 1    
    15    6   15 1    
    16    6   16 1    
    17    6   29 1    
    18    6   30 1    
    19    7   15 1    
    20    7   19 1    
    21    7   31 1    
    22    7   32 1    
    23    8    9 2    
    24    8   33 1    
    25    9   10 1    
    26    9   34 1    
    27   10   11 2    
    28   10   35 1    
    29   11   14 1    
    30   11   36 1    
    31   12   18 1    
    32   13   22 1    
    33   14   19 1    
    34   14   37 1    
    35   15   17 1    
    36   15   38 1    
    37   16   19 am   BACKBONE|DICT|INTERRES
    38   16   20 2    
    39   17   18 am   BACKBONE|DICT|INTERRES
    40   17   21 2    
    41   18   39 1    
@<TRIPOS>SUBSTRUCTURE
     1 <0>         1 GROUP             0       ****    0 ROOT    
@<TRIPOS>MOLECULE
inha-ligand
39   41    1
SMALL
USER_CHARGES


@<TRIPOS>ATOM
      1 C1         13.6857   34.3773   62.1079 C.ar      1 <0>        -0.1150 
      2 C2         12.5495   34.9706   61.5290 C.ar      1 <0>        -0.1150 
      3 C3         13.5846   33.1284   62.7357 C.ar      1 <0>        -0.1150 
      4 C4         11.2155   33.0312   62.1402 C.ar      1 <0>        -0.1150 
      5 C5          7.1136   34.3003   56.4769 C.3       1 <0>        -0.1200 
      6 C6          8.3414   37.8850   59.5355 C.3       1 <0>        -0.1200 
      7 C7          8.0148   35.5285   58.9599 C.3       1 <0>        -0.0500 
      8 C8          6.1673   33.7615   55.4178 C.2       1 <0>        -0.1150 
      9 C9          5.1716   34.4886   54.8866 C.2       1 <0>        -0.1150 
     10 C10         4.9610   35.8587   55.3007 C.2       1 <0>        -0.1150 
     11 C11         5.8637   36.4986   56.0626 C.2       1 <0>        -0.1150 
     12 C12        11.3011   34.3049   61.5363 C.ar      1 <0>         0.0850 
     13 C13        12.3542   32.4511   62.7380 C.ar      1 <0>         0.2000 
     14 C14         7.1724   35.8588   56.5376 C.3       1 <0>         0.0100 
     15 C15         8.4384   36.4596   60.1192 C.3       1 <0>        -0.0600 
     16 C16         7.8605   37.6822   58.1137 C.2       1 <0>         0.5000 
     17 C17         9.8128   36.1407   60.7441 C.2       1 <0>         0.5000 
     18 N1         10.1310   34.8429   60.9246 N.am      1 <0>        -0.3850 
     19 N2          7.6309   36.3886   57.8414 N.am      1 <0>        -0.1400 
     20 O1          7.7083   38.6240   57.3379 O.2       1 <0>        -0.5000 
     21 O2         10.5209   37.0643   61.1368 O.2       1 <0>        -0.5000 
     22 Br1        12.2642   30.7307   63.5362 Br        1 <0>        -0.2000 
     23 H1         14.6389   34.8808   62.0683 H         1 <0>         0.1150 
     24 H2         12.6621   35.9306   61.0542 H         1 <0>         0.1150 
     25 H3         14.4557   32.6752   63.1866 H         1 <0>         0.1150 
     26 H4         10.2777   32.4951   62.1531 H         1 <0>         0.1150 
     27 H5          8.1127   33.8908   56.3254 H         1 <0>         0.0600 
     28 H6          6.7403   33.8743   57.4065 H         1 <0>         0.0600 
     29 H7          7.6214   38.4925   60.0832 H         1 <0>         0.0600 
     30 H8          9.2863   38.4292   59.5010 H         1 <0>         0.0600 
     31 H9          8.8173   34.8632   58.6356 H         1 <0>         0.0600 
     32 H10         7.1707   34.9165   59.2795 H         1 <0>         0.0600 
     33 H11         6.2913   32.7313   55.1301 H         1 <0>         0.1150 
     34 H12         4.5136   34.0451   54.1516 H         1 <0>         0.1150 
     35 H13         4.0632   36.3751   54.9914 H         1 <0>         0.1150 
     36 H14         5.6780   37.5282   56.3283 H         1 <0>         0.1150 
     37 H15         7.9155   36.1837   55.8070 H         1 <0>         0.0600 
     38 H16         7.7054   36.3722   60.9233 H         1 <0>         0.0600 
     39 H17         9.4125   34.1747   60.6896 H         1 <0>         0.3000 
@<TRIPOS>BOND
     1    1    2 ar   
     2    1    3 ar   
     3    1   23 1    
     4    2   12 ar   
     5    2   24 1    
     6    3   13 ar   
     7    3   25 1    
     8    4   12 ar   
     9    4   13 ar   
    10    4   26 1    
    11    5    8 1    
    12    5   14 1    
    13    5   27 1    
    14    5   28 1    
    15    6   15 1    
    16    6   16 1    
    17    6   29 1    
    18    6   30 1    
    19    7   15 1    
    20    7   19 1    
    21    7   31 1    
    22    7   32 1    
    23    8    9 2    
    24    8   33 1    
    25    9   10 1    
    26    9   34 1    
    27   10   11 2    
    28   10   35 1    
    29   11   14 1    
    30   11   36 1    
    31   12   18 1    
    32   13   22 1    
    33   14   19 1    
    34   14   37 1    
    35   15   17 1    
    36   15   38 1    
    37   16   19 am   BACKBONE|DICT|INTERRES
    38   16   20 2    
    39   17   18 am   BACKBONE|DICT|INTERRES
    40   17   21 2    
    41   18   39 1    
@<TRIPOS>SUBSTRUCTURE
     1 <0>         1 GROUP             0       ****    0 ROOT    
@<TRIPOS>MOLECULE
inha-ligand
39   41    1
SMALL
USER_CHARGES


@<TRIPOS>ATOM
      1 C1         13.8784   34.3303   62.1918 C.ar      1 <0>        -0.1150 
      2 C2         12.7797   34.9652   61.5872 C.ar      1 <0>        -0.1150 
      3 C3         13.7211   33.0714   62.7844 C.ar      1 <0>        -0.1150 
      4 C4         11.3599   33.0756   62.1558 C.ar      1 <0>        -0.1150 
      5 C5          4.7376   35.9571   56.7527 C.3       1 <0>        -0.1200 
      6 C6          8.9959   34.8329   57.7153 C.3       1 <0>        -0.1200 
      7 C7          7.1984   35.3699   59.2916 C.3       1 <0>        -0.0500 
      8 C8          4.1183   35.3926   55.4841 C.2       1 <0>        -0.1150 
      9 C9          3.8610   34.0878   55.3020 C.2       1 <0>        -0.1150 
     10 C10         4.1517   33.1140   56.3310 C.2       1 <0>        -0.1150 
     11 C11         4.7744   33.4645   57.4674 C.2       1 <0>        -0.1150 
     12 C12        11.5233   34.3310   61.5248 C.ar      1 <0>         0.0850 
     13 C13        12.4640   32.4496   62.7631 C.ar      1 <0>         0.2000 
     14 C14         5.2135   34.8903   57.7851 C.3       1 <0>         0.0100 
     15 C15         8.7376   35.3492   59.1419 C.3       1 <0>        -0.0600 
     16 C16         7.6218   34.6767   57.1073 C.2       1 <0>         0.5000 
     17 C17         9.4468   34.4449   60.1586 C.2       1 <0>         0.5000 
     18 N1         10.5062   34.9905   60.7835 N.am      1 <0>        -0.3850 
     19 N2          6.6631   34.9525   58.0021 N.am      1 <0>        -0.1400 
     20 O1          7.4597   34.3338   55.9354 O.2       1 <0>        -0.5000 
     21 O2          9.0397   33.2969   60.3352 O.2       1 <0>        -0.5000 
     22 Br1        12.2853   30.7309   63.5362 Br        1 <0>        -0.2000 
     23 H1         14.8565   34.7809   62.1852 H         1 <0>         0.1150 
     24 H2         12.9222   35.9311   61.1361 H         1 <0>         0.1150 
     25 H3         14.5650   32.5766   63.2428 H         1 <0>         0.1150 
     26 H4         10.4111   32.5620   62.1628 H         1 <0>         0.1150 
     27 H5          3.9827   36.5902   57.2198 H         1 <0>         0.0600 
     28 H6          5.5516   36.6263   56.4707 H         1 <0>         0.0600 
     29 H7          9.5932   35.5309   57.1351 H         1 <0>         0.0600 
     30 H8          9.4829   33.8582   57.6861 H         1 <0>         0.0600 
     31 H9          6.8370   34.7010   60.0747 H         1 <0>         0.0600 
     32 H10         6.8457   36.3741   59.5305 H         1 <0>         0.0600 
     33 H11         3.8702   36.1019   54.7081 H         1 <0>         0.1150 
     34 H12         3.4168   33.7602   54.3730 H         1 <0>         0.1150 
     35 H13         3.8659   32.0828   56.1796 H         1 <0>         0.1150 
     36 H14         4.9857   32.7136   58.2150 H         1 <0>         0.1150 
     37 H15         4.7369   35.1329   58.7362 H         1 <0>         0.0600 
     38 H16         9.1168   36.3693   59.2279 H         1 <0>         0.0600 
     39 H17        10.7188   35.9420   60.5227 H         1 <0>         0.3000 
@<TRIPOS>BOND
     1    1    2 ar   
     2    1    3 ar   
     3    1   23 1    
     4    2   12 ar   
     5    2   24 1    
     6    3   13 ar   
     7    3   25 1    
     8    4   12 ar   
     9    4   13 ar   
    10    4   26 1    
    11    5    8 1    
    12    5   14 1    
    13    5   27 1    
    14    5   28 1    
    15    6   15 1    
    16    6   16 1    
    17    6   29 1    
    18    6   30 1    
    19    7   15 1    
    20    7   19 1    
    21    7   31 1    
    22    7   32 1    
    23    8    9 2    
    24    8   33 1    
    25    9   10 1    
    26    9   34 1    
    27   10   11 2    
    28   10   35 1    
    29   11   14 1    
    30   11   36 1    
    31   12   18 1    
    32   13   22 1    
    33   14   19 1    
    34   14   37 1    
    35   15   17 1    
    36   15   38 1    
    37   16   19 am   BACKBONE|DICT|INTERRES
    38   16   20 2    
    39   17   18 am   BACKBONE|DICT|INTERRES
    40   17   21 2    
    41   18   39 1    
@<TRIPOS>SUBSTRUCTURE
     1 <0>         1 GROUP             0       ****    0 ROOT    
@<TRIPOS>MOLECULE
inha-ligand
39   41    1
SMALL
USER_CHARGES


@<TRIPOS>ATOM
      1 C1         14.4774   32.9830   63.5197 C.ar      1 <0>        -0.1150 
      2 C2         13.6148   33.7681   62.7345 C.ar      1 <0>        -0.1150 
      3 C3         14.0594   31.7066   63.9304 C.ar      1 <0>        -0.1150 
      4 C4         11.9530   31.9680   62.7424 C.ar      1 <0>        -0.1150 
      5 C5          6.6353   37.2534   57.8421 C.3       1 <0>        -0.1200 
      6 C6         10.0486   34.7239   59.2018 C.3       1 <0>        -0.1200 
      7 C7          9.4301   36.7499   60.3951 C.3       1 <0>        -0.0500 
      8 C8          5.4576   36.3309   57.5590 C.2       1 <0>        -0.1150 
      9 C9          4.7392   35.7393   58.5281 C.2       1 <0>        -0.1150 
     10 C10         5.0596   35.9411   59.9243 C.2       1 <0>        -0.1150 
     11 C11         6.1722   36.5948   60.2968 C.2       1 <0>        -0.1150 
     12 C12        12.3427   33.2705   62.3625 C.ar      1 <0>         0.0850 
     13 C13        12.8150   31.1902   63.5365 C.ar      1 <0>         0.2000 
     14 C14         7.1772   37.1660   59.3051 C.3       1 <0>         0.0100 
     15 C15        10.6128   35.8064   60.1235 C.3       1 <0>        -0.0600 
     16 C16         8.7127   35.2539   58.7661 C.2       1 <0>         0.5000 
     17 C17        11.3724   35.3235   61.3638 C.2       1 <0>         0.5000 
     18 N1         11.4609   33.9972   61.5361 N.am      1 <0>        -0.3850 
     19 N2          8.4240   36.4031   59.3959 N.am      1 <0>        -0.1400 
     20 O1          8.0254   34.6526   57.9419 O.2       1 <0>        -0.5000 
     21 O2         11.8605   36.1519   62.1319 O.2       1 <0>        -0.5000 
     22 Br1        12.2606   29.5271   64.2865 Br        1 <0>        -0.2000 
     23 H1         15.4399   33.3672   63.8252 H         1 <0>         0.1150 
     24 H2         13.9451   34.7449   62.4169 H         1 <0>         0.1150 
     25 H3         14.6621   31.1307   64.6010 H         1 <0>         0.1150 
     26 H4         10.9824   31.5847   62.4696 H         1 <0>         0.1150 
     27 H5          6.2764   38.2629   57.6477 H         1 <0>         0.0600 
     28 H6          7.4215   37.0888   57.1032 H         1 <0>         0.0600 
     29 H7         10.6855   34.5680   58.3363 H         1 <0>         0.0600 
     30 H8          9.8589   33.7609   59.6744 H         1 <0>         0.0600 
     31 H9          9.0179   36.6191   61.3979 H         1 <0>         0.0600 
     32 H10         9.7326   37.7915   60.2839 H         1 <0>         0.0600 
     33 H11         5.1915   36.1818   56.5221 H         1 <0>         0.1150 
     34 H12         3.9134   35.0987   58.2612 H         1 <0>         0.1150 
     35 H13         4.3936   35.5568   60.6815 H         1 <0>         0.1150 
     36 H14         6.3916   36.7261   61.3468 H         1 <0>         0.1150 
     37 H15         7.3950   38.1829   59.6323 H         1 <0>         0.0600 
     38 H16        11.3564   36.3311   59.5364 H         1 <0>         0.0600 
     39 H17        10.8662   33.4401   60.9432 H         1 <0>         0.3000 
@<TRIPOS>BOND
     1    1    2 ar   
     2    1    3 ar   
     3    1   23 1    
     4    2   12 ar   
     5    2   24 1    
     6    3   13 ar   
     7    3   25 1    
     8    4   12 ar   
     9    4   13 ar   
    10    4   26 1    
    11    5    8 1    
    12    5   14 1    
    13    5   27 1    
    14    5   28 1    
    15    6   15 1    
    16    6   16 1    
    17    6   29 1    
    18    6   30 1    
    19    7   15 1    
    20    7   19 1    
    21    7   31 1    
    22    7   32 1    
    23    8    9 2    
    24    8   33 1    
    25    9   10 1    
    26    9   34 1    
    27   10   11 2    
    28   10   35 1    
    29   11   14 1    
    30   11   36 1    
    31   12   18 1    
    32   13   22 1    
    33   14   19 1    
    34   14   37 1    
    35   15   17 1    
    36   15   38 1    
    37   16   19 am   BACKBONE|DICT|INTERRES
    38   16   20 2    
    39   17   18 am   BACKBONE|DICT|INTERRES
    40   17   21 2    
    41   18   39 1    
@<TRIPOS>SUBSTRUCTURE
     1 <0>         1 GROUP             0       ****    0 ROOT    
@<TRIPOS>MOLECULE
inha-ligand
39   41    1
SMALL
USER_CHARGES


@<TRIPOS>ATOM
      1 C1         13.3507   34.2408   62.3893 C.ar      1 <0>        -0.1150 
      2 C2         12.6248   35.0651   61.5114 C.ar      1 <0>        -0.1150 
      3 C3         12.7648   33.0632   62.8781 C.ar      1 <0>        -0.1150 
      4 C4         10.7446   33.5287   61.5822 C.ar      1 <0>        -0.1150 
      5 C5          5.1702   36.2161   55.5384 C.3       1 <0>        -0.1200 
      6 C6          9.0644   34.9460   57.4866 C.3       1 <0>        -0.1200 
      7 C7          7.4759   36.5952   58.3686 C.3       1 <0>        -0.0500 
      8 C8          4.4037   35.1491   54.7726 C.2       1 <0>        -0.1150 
      9 C9          3.8558   34.0700   55.3505 C.2       1 <0>        -0.1150 
     10 C10         3.9549   33.8475   56.7754 C.2       1 <0>        -0.1150 
     11 C11         4.6679   34.6713   57.5603 C.2       1 <0>        -0.1150 
     12 C12        11.3186   34.7246   61.1009 C.ar      1 <0>         0.0850 
     13 C13        11.4614   32.7185   62.4793 C.ar      1 <0>         0.2000 
     14 C14         5.4256   35.8880   57.0422 C.3       1 <0>         0.0100 
     15 C15         8.9350   36.0942   58.5061 C.3       1 <0>        -0.0600 
     16 C16         7.7065   34.8662   56.8250 C.2       1 <0>         0.5000 
     17 C17         9.3364   35.5926   59.9002 C.2       1 <0>         0.5000 
     18 N1         10.6602   35.5314   60.1345 N.am      1 <0>        -0.3850 
     19 N2          6.8565   35.7588   57.3487 N.am      1 <0>        -0.1400 
     20 O1          7.4603   34.0534   55.9341 O.2       1 <0>        -0.5000 
     21 O2          8.4793   35.2957   60.7328 O.2       1 <0>        -0.5000 
     22 Br1        10.6655   31.1339   63.1383 Br        1 <0>        -0.2000 
     23 H1         14.3569   34.5064   62.6785 H         1 <0>         0.1150 
     24 H2         13.1028   35.9473   61.1366 H         1 <0>         0.1150 
     25 H3         13.3121   32.4248   63.5574 H         1 <0>         0.1150 
     26 H4          9.7595   33.2093   61.2788 H         1 <0>         0.1150 
     27 H5          4.5927   37.1386   55.4652 H         1 <0>         0.0600 
     28 H6          6.1039   36.4149   55.0136 H         1 <0>         0.0600 
     29 H7          9.8481   35.1319   56.7511 H         1 <0>         0.0600 
     30 H8          9.2886   33.9817   57.9467 H         1 <0>         0.0600 
     31 H9          6.9018   36.5412   59.2944 H         1 <0>         0.0600 
     32 H10         7.4540   37.6345   58.0385 H         1 <0>         0.0600 
     33 H11         4.2891   35.2965   53.7114 H         1 <0>         0.1150 
     34 H12         3.3117   33.3634   54.7427 H         1 <0>         0.1150 
     35 H13         3.4555   32.9965   57.2135 H         1 <0>         0.1150 
     36 H14         4.7312   34.4766   58.6223 H         1 <0>         0.1150 
     37 H15         5.0478   36.7307   57.6205 H         1 <0>         0.0600 
     38 H16         9.6019   36.9121   58.2392 H         1 <0>         0.0600 
     39 H17        11.2688   35.9970   59.4709 H         1 <0>         0.3000 
@<TRIPOS>BOND
     1    1    2 ar   
     2    1    3 ar   
     3    1   23 1    
     4    2   12 ar   
     5    2   24 1    
     6    3   13 ar   
     7    3   25 1    
     8    4   12 ar   
     9    4   13 ar   
    10    4   26 1    
    11    5    8 1    
    12    5   14 1    
    13    5   27 1    
    14    5   28 1    
    15    6   15 1    
    16    6   16 1    
    17    6   29 1    
    18    6   30 1    
    19    7   15 1    
    20    7   19 1    
    21    7   31 1    
    22    7   32 1    
    23    8    9 2    
    24    8   33 1    
    25    9   10 1    
    26    9   34 1    
    27   10   11 2    
    28   10   35 1    
    29   11   14 1    
    30   11   36 1    
    31   12   18 1    
    32   13   22 1    
    33   14   19 1    
    34   14   37 1    
    35   15   17 1    
    36   15   38 1    
    37   16   19 am   BACKBONE|DICT|INTERRES
    38   16   20 2    
    39   17   18 am   BACKBONE|DICT|INTERRES
    40   17   21 2    
    41   18   39 1    
@<TRIPOS>SUBSTRUCTURE
     1 <0>         1 GROUP             0       ****    0 ROOT    
@<TRIPOS>MOLECULE
inha-ligand
39   41    1
SMALL
USER_CHARGES


@<TRIPOS>ATOM
      1 C1         13.8610   31.6352   63.9362 C.ar      1 <0>        -0.1150 
      2 C2         12.8733   32.2003   63.1142 C.ar      1 <0>        -0.1150 
      3 C3         15.0610   32.3308   64.1637 C.ar      1 <0>        -0.1150 
      4 C4         14.3645   34.0708   62.6287 C.ar      1 <0>        -0.1150 
      5 C5          7.4029   37.5867   58.3119 C.3       1 <0>        -0.1200 
      6 C6          9.8548   34.3523   59.9485 C.3       1 <0>        -0.1200 
      7 C7          9.7288   36.6808   60.6785 C.3       1 <0>        -0.0500 
      8 C8          6.3086   36.9001   57.5093 C.2       1 <0>        -0.1150 
      9 C9          5.2340   36.3298   58.0797 C.2       1 <0>        -0.1150 
     10 C10         5.0611   36.3309   59.5184 C.2       1 <0>        -0.1150 
     11 C11         6.0501   36.7308   60.3362 C.2       1 <0>        -0.1150 
     12 C12        13.1116   33.4370   62.4822 C.ar      1 <0>         0.0850 
     13 C13        15.3429   33.5246   63.4837 C.ar      1 <0>         0.2000 
     14 C14         7.4036   37.2166   59.8248 C.3       1 <0>         0.0100 
     15 C15        10.7284   35.5415   60.3862 C.3       1 <0>        -0.0600 
     16 C16         8.4932   34.9589   59.7225 C.2       1 <0>         0.5000 
     17 C17        11.6993   35.2269   61.5362 C.2       1 <0>         0.5000 
     18 N1         12.1206   33.9554   61.6212 N.am      1 <0>        -0.3850 
     19 N2          8.4615   36.2419   60.1121 N.am      1 <0>        -0.1400 
     20 O1          7.5824   34.3207   59.1974 O.2       1 <0>        -0.5000 
     21 O2         12.0599   36.1162   62.3066 O.2       1 <0>        -0.5000 
     22 Br1        17.0610   34.3309   63.6979 Br        1 <0>        -0.2000 
     23 H1         13.6792   30.6947   64.4353 H         1 <0>         0.1150 
     24 H2         11.9349   31.6838   62.9732 H         1 <0>         0.1150 
     25 H3         15.7975   31.9309   64.8423 H         1 <0>         0.1150 
     26 H4         14.5768   34.9761   62.0804 H         1 <0>         0.1150 
     27 H5          7.2488   38.6608   58.2023 H         1 <0>         0.0600 
     28 H6          8.3715   37.3762   57.8559 H         1 <0>         0.0600 
     29 H7         10.2092   33.9309   59.0100 H         1 <0>         0.0600 
     30 H8          9.7552   33.5603   60.6916 H         1 <0>         0.0600 
     31 H9          9.6004   36.8720   61.7436 H         1 <0>         0.0600 
     32 H10        10.0556   37.6091   60.2114 H         1 <0>         0.0600 
     33 H11         6.4092   36.9109   56.4342 H         1 <0>         0.1150 
     34 H12         4.4854   35.8641   57.4560 H         1 <0>         0.1150 
     35 H13         4.1252   35.9953   59.9362 H         1 <0>         0.1150 
     36 H14         5.9090   36.7147   61.4077 H         1 <0>         0.1150 
     37 H15         7.6346   38.1229   60.3860 H         1 <0>         0.0600 
     38 H16        11.3427   35.8398   59.5362 H         1 <0>         0.0600 
     39 H17        11.6602   33.2895   61.0203 H         1 <0>         0.3000 
@<TRIPOS>BOND
     1    1    2 ar   
     2    1    3 ar   
     3    1   23 1    
     4    2   12 ar   
     5    2   24 1    
     6    3   13 ar   
     7    3   25 1    
     8    4   12 ar   
     9    4   13 ar   
    10    4   26 1    
    11    5    8 1    
    12    5   14 1    
    13    5   27 1    
    14    5   28 1    
    15    6   15 1    
    16    6   16 1    
    17    6   29 1    
    18    6   30 1    
    19    7   15 1    
    20    7   19 1    
    21    7   31 1    
    22    7   32 1    
    23    8    9 2    
    24    8   33 1    
    25    9   10 1    
    26    9   34 1    
    27   10   11 2    
    28   10   35 1    
    29   11   14 1    
    30   11   36 1    
    31   12   18 1    
    32   13   22 1    
    33   14   19 1    
    34   14   37 1    
    35   15   17 1    
    36   15   38 1    
    37   16   19 am   BACKBONE|DICT|INTERRES
    38   16   20 2    
    39   17   18 am   BACKBONE|DICT|INTERRES
    40   17   21 2    
    41   18   39 1    
@<TRIPOS>SUBSTRUCTURE
     1 <0>         1 GROUP             0       ****    0 ROOT    
@<TRIPOS>MOLECULE
inha-ligand
39   41    1
SMALL
USER_CHARGES


@<TRIPOS>ATOM
      1 C1         14.8359   33.2498   63.2427 C.ar      1 <0>        -0.1150 
      2 C2         13.9581   34.1150   62.5659 C.ar      1 <0>        -0.1150 
      3 C3         14.3859   31.9792   63.6410 C.ar      1 <0>        -0.1150 
      4 C4         12.1738   32.4694   62.7365 C.ar      1 <0>        -0.1150 
      5 C5          7.4336   38.3184   57.6861 C.3       1 <0>        -0.1200 
      6 C6         10.1220   34.9847   58.5830 C.3       1 <0>        -0.1200 
      7 C7          8.9595   36.3173   60.2519 C.3       1 <0>        -0.0500 
      8 C8          6.8216   38.0489   56.3212 C.2       1 <0>        -0.1150 
      9 C9          5.8614   37.1286   56.1192 C.2       1 <0>        -0.1150 
     10 C10         5.3350   36.3308   57.2061 C.2       1 <0>        -0.1150 
     11 C11         5.9035   36.3584   58.4211 C.2       1 <0>        -0.1150 
     12 C12        12.6287   33.7376   62.3046 C.ar      1 <0>         0.0850 
     13 C13        13.0612   31.5890   63.3860 C.ar      1 <0>         0.2000 
     14 C14         7.1187   37.2214   58.7493 C.3       1 <0>         0.0100 
     15 C15        10.2961   35.6029   59.9726 C.3       1 <0>        -0.0600 
     16 C16         8.8792   35.6128   58.0300 C.2       1 <0>         0.5000 
     17 C17        10.6604   34.5051   60.9727 C.2       1 <0>         0.5000 
     18 N1         11.8492   34.6696   61.5765 N.am      1 <0>        -0.3850 
     19 N2          8.2818   36.3662   58.9619 N.am      1 <0>        -0.1400 
     20 O1          8.5254   35.4372   56.8641 O.2       1 <0>        -0.5000 
     21 O2          9.9055   33.5508   61.1361 O.2       1 <0>        -0.5000 
     22 Br1        12.4672   29.8743   63.9387 Br        1 <0>        -0.2000 
     23 H1         15.8565   33.5506   63.4335 H         1 <0>         0.1150 
     24 H2         14.3137   35.0813   62.2399 H         1 <0>         0.1150 
     25 H3         15.0611   31.3045   64.1389 H         1 <0>         0.1150 
     26 H4         11.1625   32.1337   62.5724 H         1 <0>         0.1150 
     27 H5          7.0516   39.2794   58.0295 H         1 <0>         0.0600 
     28 H6          8.5088   38.4620   57.5696 H         1 <0>         0.0600 
     29 H7         10.9832   35.1371   57.9388 H         1 <0>         0.0600 
     30 H8          9.9179   33.9259   58.6093 H         1 <0>         0.0600 
     31 H9          8.3358   35.7802   60.9685 H         1 <0>         0.0600 
     32 H10         9.1287   37.3227   60.6383 H         1 <0>         0.0600 
     33 H11         7.1808   38.6491   55.4967 H         1 <0>         0.1150 
     34 H12         5.4535   36.9865   55.1358 H         1 <0>         0.1150 
     35 H13         4.4746   35.7005   57.0350 H         1 <0>         0.1150 
     36 H14         5.5101   35.7467   59.2184 H         1 <0>         0.1150 
     37 H15         6.8973   37.7238   59.6914 H         1 <0>         0.0600 
     38 H16        11.0970   36.3433   59.9346 H         1 <0>         0.0600 
     39 H17        12.3239   35.5311   61.3541 H         1 <0>         0.3000 
@<TRIPOS>BOND
     1    1    2 ar   
     2    1    3 ar   
     3    1   23 1    
     4    2   12 ar   
     5    2   24 1    
     6    3   13 ar   
     7    3   25 1    
     8    4   12 ar   
     9    4   13 ar   
    10    4   26 1    
    11    5    8 1    
    12    5   14 1    
    13    5   27 1    
    14    5   28 1    
    15    6   15 1    
    16    6   16 1    
    17    6   29 1    
    18    6   30 1    
    19    7   15 1    
    20    7   19 1    
    21    7   31 1    
    22    7   32 1    
    23    8    9 2    
    24    8   33 1    
    25    9   10 1    
    26    9   34 1    
    27   10   11 2    
    28   10   35 1    
    29   11   14 1    
    30   11   36 1    
    31   12   18 1    
    32   13   22 1    
    33   14   19 1    
    34   14   37 1    
    35   15   17 1    
    36   15   38 1    
    37   16   19 am   BACKBONE|DICT|INTERRES
    38   16   20 2    
    39   17   18 am   BACKBONE|DICT|INTERRES
    40   17   21 2    
    41   18   39 1    
@<TRIPOS>SUBSTRUCTURE
     1 <0>         1 GROUP             0       ****    0 ROOT    
