@<TRIPOS>MOLECULE
jak2-ligand
56   59    1
SMALL
USER_CHARGES


@<TRIPOS>ATOM
      1 C1        111.7109   62.8181    4.9985 C.3       1 <0>         0.0222 
      2 C2        115.3897   69.5650   16.7400 C.3       1 <0>         0.1100 
      3 C3        111.1698   66.3700   12.1049 C.3       1 <0>         0.1100 
      4 C4        111.2518   68.7022   15.7840 C.3       1 <0>         0.1100 
      5 C5        118.6417   66.5249    7.6945 C.ar      1 <0>        -0.1399 
      6 C6        117.3768   65.9311    7.5713 C.ar      1 <0>        -0.1399 
      7 C7        118.9913   67.1643    8.8941 C.ar      1 <0>        -0.3245 
      8 C8        114.5718   64.4031    9.2702 C.ar      1 <0>        -0.1150 
      9 C9        114.3261   65.8297    7.3147 C.ar      1 <0>        -0.1150 
     10 C10       113.3076   63.8351    9.0202 C.ar      1 <0>        -0.1150 
     11 C11       113.0555   65.2780    7.0642 C.ar      1 <0>        -0.1150 
     12 C12       115.4722   67.8763   14.3432 C.ar      1 <0>        -0.1150 
     13 C13       113.8586   67.0783   12.7204 C.ar      1 <0>        -0.1150 
     14 C14       117.5298   67.9648   12.0954 C.ar      1 <0>         0.1442 
     15 C15       115.1035   65.3967    8.4151 C.ar      1 <0>         0.0000 
     16 C16       112.5563   64.2692    7.9107 C.ar      1 <0>         0.1567 
     17 C17       116.4509   65.9649    8.6383 C.ar      1 <0>        -0.1387 
     18 C18       118.1163   67.1726    9.9993 C.ar      1 <0>         0.4087 
     19 C19       115.1952   67.4402   13.0275 C.ar      1 <0>         0.0000 
     20 C20       114.4565   67.9353   15.3229 C.ar      1 <0>         0.0850 
     21 C21       112.8245   67.1321   13.6837 C.ar      1 <0>         0.0850 
     22 C22       116.2550   67.3637   11.9942 C.ar      1 <0>         0.2310 
     23 C23       116.8279   66.5683    9.8692 C.ar      1 <0>         0.4086 
     24 C24       113.1382   67.5647   14.9910 C.ar      1 <0>         0.0850 
     25 N1        118.4586   67.8523   11.1214 N.ar      1 <0>        -0.5226 
     26 N2        115.9432   66.6537   10.8905 N.ar      1 <0>        -0.5225 
     27 N3        111.3515   62.3627    6.3450 N.pl3     1 <0>        -0.6527 
     28 O1        110.0893   64.5288    6.9518 O.2       1 <0>        -0.4680 
     29 O2        110.5230   62.7655    8.7473 O.2       1 <0>        -0.4680 
     30 O3        114.7172   68.3253   16.6129 O.3       1 <0>        -0.2850 
     31 O4        111.5185   66.7734   13.4221 O.3       1 <0>        -0.2850 
     32 O5        112.1706   67.6339   15.9620 O.3       1 <0>        -0.2850 
     33 S1        110.9665   63.5185    7.5638 S.o2      1 <0>         0.8327 
     34 H1        112.6027   63.4486    5.0286 H         1 <0>         0.0733 
     35 H2        110.8908   63.3912    4.5575 H         1 <0>         0.0733 
     36 H3        111.9234   61.9631    4.3562 H         1 <0>         0.0733 
     37 H4        115.5030   69.8109   17.7967 H         1 <0>         0.0300 
     38 H5        116.3826   69.5643   16.2943 H         1 <0>         0.0300 
     39 H6        114.8060   70.3607   16.2731 H         1 <0>         0.0300 
     40 H7        110.1041   66.1398   12.0703 H         1 <0>         0.0300 
     41 H8        111.3583   67.1650   11.3827 H         1 <0>         0.0300 
     42 H9        111.7111   65.4730   11.8030 H         1 <0>         0.0300 
     43 H10       110.5998   68.7630   16.6535 H         1 <0>         0.0300 
     44 H11       111.7755   69.6550   15.6945 H         1 <0>         0.0300 
     45 H12       110.6204   68.5675   14.9070 H         1 <0>         0.0300 
     46 H13       119.3289   66.5120    6.8602 H         1 <0>         0.1615 
     47 H14       117.1030   65.4680    6.6322 H         1 <0>         0.1615 
     48 H15       119.9550   67.6444    8.9724 H         1 <0>         0.1858 
     49 H16       115.1483   64.0557   10.1139 H         1 <0>         0.1150 
     50 H17       114.7084   66.5914    6.6496 H         1 <0>         0.1150 
     51 H18       112.9281   63.0610    9.6716 H         1 <0>         0.1150 
     52 H19       112.4734   65.6101    6.2158 H         1 <0>         0.1150 
     53 H20       116.4816   68.1400   14.6178 H         1 <0>         0.1150 
     54 H21       113.6306   66.7487   11.7185 H         1 <0>         0.1150 
     55 H22       117.8205   68.5454   12.9576 H         1 <0>         0.0868 
     56 H23       110.6380   61.6350    6.3149 H         1 <0>         0.3572 
@<TRIPOS>BOND
     1    1   27 1    
     2    1   34 1    
     3    1   35 1    
     4    1   36 1    
     5    2   30 1    
     6    2   37 1    
     7    2   38 1    
     8    2   39 1    
     9    3   31 1    
    10    3   40 1    
    11    3   41 1    
    12    3   42 1    
    13    4   32 1    
    14    4   43 1    
    15    4   44 1    
    16    4   45 1    
    17    5    6 ar   
    18    5    7 ar   
    19    5   46 1    
    20    6   17 ar   
    21    6   47 1    
    22    7   18 ar   
    23    7   48 1    
    24    8   10 ar   
    25    8   15 ar   
    26    8   49 1    
    27    9   11 ar   
    28    9   15 ar   
    29    9   50 1    
    30   10   16 ar   
    31   10   51 1    
    32   11   16 ar   
    33   11   52 1    
    34   12   19 ar   
    35   12   20 ar   
    36   12   53 1    
    37   13   19 ar   
    38   13   21 ar   
    39   13   54 1    
    40   14   22 ar   
    41   14   25 ar   
    42   14   55 1    
    43   15   17 1    
    44   16   33 1    
    45   17   23 ar   
    46   18   23 ar   
    47   18   25 ar   
    48   19   22 1    
    49   20   24 ar   
    50   20   30 1    
    51   21   24 ar   
    52   21   31 1    
    53   22   26 ar   
    54   23   26 ar   
    55   24   32 1    
    56   27   33 1    
    57   27   56 1    
    58   28   33 2    
    59   29   33 2    
@<TRIPOS>SUBSTRUCTURE
     1 <0>         1 GROUP             0       ****    0 ROOT    
@<TRIPOS>MOLECULE
jak2-ligand
56   59    1
SMALL
USER_CHARGES


@<TRIPOS>ATOM
      1 C1        110.6385   65.1090    6.0963 C.3       1 <0>         0.0222 
      2 C2        114.7603   69.5650   17.1954 C.3       1 <0>         0.1100 
      3 C3        111.3589   66.4323   12.4562 C.3       1 <0>         0.1100 
      4 C4        111.3749   68.1905   16.1143 C.3       1 <0>         0.1100 
      5 C5        118.7382   66.4523    7.6928 C.ar      1 <0>        -0.1399 
      6 C6        117.4941   65.8250    7.6170 C.ar      1 <0>        -0.1399 
      7 C7        119.0634   67.1659    8.8484 C.ar      1 <0>        -0.3245 
      8 C8        114.6974   65.1592    7.1670 C.ar      1 <0>        -0.1150 
      9 C9        114.5905   64.5259    9.5043 C.ar      1 <0>        -0.1150 
     10 C10       113.5464   64.3998    6.9111 C.ar      1 <0>        -0.1150 
     11 C11       113.3884   63.8292    9.2753 C.ar      1 <0>        -0.1150 
     12 C12       115.7908   67.9650   14.3771 C.ar      1 <0>        -0.1150 
     13 C13       114.0647   67.1628   12.8882 C.ar      1 <0>        -0.1150 
     14 C14       117.6762   68.0835   12.0316 C.ar      1 <0>         0.1442 
     15 C15       115.2580   65.2190    8.4647 C.ar      1 <0>         0.0000 
     16 C16       112.8662   63.7737    7.9714 C.ar      1 <0>         0.1567 
     17 C17       116.5517   65.9174    8.6700 C.ar      1 <0>        -0.1387 
     18 C18       118.1918   67.2378    9.9470 C.ar      1 <0>         0.4087 
     19 C19       115.4128   67.5454   13.0850 C.ar      1 <0>         0.0000 
     20 C20       114.8714   67.9982   15.4379 C.ar      1 <0>         0.0850 
     21 C21       113.1130   67.1851   13.9382 C.ar      1 <0>         0.0850 
     22 C22       116.3994   67.4855   11.9810 C.ar      1 <0>         0.2310 
     23 C23       116.9074   66.6216    9.8605 C.ar      1 <0>         0.4086 
     24 C24       113.5228   67.6193   15.2289 C.ar      1 <0>         0.0850 
     25 N1        118.5646   67.9605   11.0280 N.ar      1 <0>        -0.5226 
     26 N2        116.0421   66.7650   10.8943 N.ar      1 <0>        -0.5225 
     27 N3        110.2787   64.2736    7.2398 N.pl3     1 <0>        -0.6527 
     28 O1        110.7825   62.3705    8.8880 O.2       1 <0>        -0.4680 
     29 O2        111.4672   62.1284    6.4372 O.2       1 <0>        -0.4680 
     30 O3        115.3507   68.3885   16.6634 O.3       1 <0>        -0.2850 
     31 O4        111.8063   66.7778   13.7599 O.3       1 <0>        -0.2850 
     32 O5        112.6746   67.6509   16.3152 O.3       1 <0>        -0.2850 
     33 S1        111.3092   62.9528    7.6447 S.o2      1 <0>         0.8327 
     34 H1        109.7913   65.6671    5.7323 H         1 <0>         0.0733 
     35 H2        111.0166   64.4849    5.2920 H         1 <0>         0.0733 
     36 H3        111.3952   65.8399    6.3780 H         1 <0>         0.0733 
     37 H4        115.4371   69.9970   17.9321 H         1 <0>         0.0300 
     38 H5        114.5845   70.3178   16.4249 H         1 <0>         0.0300 
     39 H6        113.8207   69.3526   17.7031 H         1 <0>         0.0300 
     40 H7        110.2998   66.1772   12.4971 H         1 <0>         0.0300 
     41 H8        111.4696   67.2661   11.7620 H         1 <0>         0.0300 
     42 H9        111.8917   65.5649   12.0665 H         1 <0>         0.0300 
     43 H10       111.0344   68.6511   17.0416 H         1 <0>         0.0300 
     44 H11       111.3586   68.9608   15.3398 H         1 <0>         0.0300 
     45 H12       110.6594   67.4089   15.8575 H         1 <0>         0.0300 
     46 H13       119.4358   66.3884    6.8690 H         1 <0>         0.1615 
     47 H14       117.2741   65.2686    6.7174 H         1 <0>         0.1615 
     48 H15       120.0249   67.6528    8.9012 H         1 <0>         0.1858 
     49 H16       115.1650   65.6650    6.3341 H         1 <0>         0.1150 
     50 H17       115.0103   64.5073   10.4940 H         1 <0>         0.1150 
     51 H18       113.1790   64.3291    5.8988 H         1 <0>         0.1150 
     52 H19       112.8829   63.3341   10.0918 H         1 <0>         0.1150 
     53 H20       116.8039   68.2691   14.5848 H         1 <0>         0.1150 
     54 H21       113.7698   66.8355   11.9040 H         1 <0>         0.1150 
     55 H22       118.0057   68.6745   12.8725 H         1 <0>         0.0868 
     56 H23       109.3171   63.9471    7.1659 H         1 <0>         0.3572 
@<TRIPOS>BOND
     1    1   27 1    
     2    1   34 1    
     3    1   35 1    
     4    1   36 1    
     5    2   30 1    
     6    2   37 1    
     7    2   38 1    
     8    2   39 1    
     9    3   31 1    
    10    3   40 1    
    11    3   41 1    
    12    3   42 1    
    13    4   32 1    
    14    4   43 1    
    15    4   44 1    
    16    4   45 1    
    17    5    6 ar   
    18    5    7 ar   
    19    5   46 1    
    20    6   17 ar   
    21    6   47 1    
    22    7   18 ar   
    23    7   48 1    
    24    8   10 ar   
    25    8   15 ar   
    26    8   49 1    
    27    9   11 ar   
    28    9   15 ar   
    29    9   50 1    
    30   10   16 ar   
    31   10   51 1    
    32   11   16 ar   
    33   11   52 1    
    34   12   19 ar   
    35   12   20 ar   
    36   12   53 1    
    37   13   19 ar   
    38   13   21 ar   
    39   13   54 1    
    40   14   22 ar   
    41   14   25 ar   
    42   14   55 1    
    43   15   17 1    
    44   16   33 1    
    45   17   23 ar   
    46   18   23 ar   
    47   18   25 ar   
    48   19   22 1    
    49   20   24 ar   
    50   20   30 1    
    51   21   24 ar   
    52   21   31 1    
    53   22   26 ar   
    54   23   26 ar   
    55   24   32 1    
    56   27   33 1    
    57   27   56 1    
    58   28   33 2    
    59   29   33 2    
@<TRIPOS>SUBSTRUCTURE
     1 <0>         1 GROUP             0       ****    0 ROOT    
@<TRIPOS>MOLECULE
jak2-ligand
56   59    1
SMALL
USER_CHARGES


@<TRIPOS>ATOM
      1 C1        109.8234   65.8363    9.2221 C.3       1 <0>         0.0222 
      2 C2        114.8768   68.1089   17.7433 C.3       1 <0>         0.1100 
      3 C3        111.3631   66.4608   12.4375 C.3       1 <0>         0.1100 
      4 C4        111.8421   68.8513   16.0563 C.3       1 <0>         0.1100 
      5 C5        118.5906   66.4268    7.4566 C.ar      1 <0>        -0.1399 
      6 C6        117.3161   65.8439    7.4120 C.ar      1 <0>        -0.1399 
      7 C7        118.9927   67.1131    8.6109 C.ar      1 <0>        -0.3245 
      8 C8        114.5190   64.4784    9.2914 C.ar      1 <0>        -0.1150 
      9 C9        114.2861   65.7601    7.2393 C.ar      1 <0>        -0.1150 
     10 C10       113.2214   63.9580    9.1227 C.ar      1 <0>        -0.1150 
     11 C11       112.9872   65.2451    7.0584 C.ar      1 <0>        -0.1150 
     12 C12       115.8414   67.9663   14.2420 C.ar      1 <0>        -0.1150 
     13 C13       114.1144   67.0975   12.7980 C.ar      1 <0>        -0.1150 
     14 C14       117.7335   67.9711   11.8809 C.ar      1 <0>         0.1442 
     15 C15       115.0705   65.3858    8.3570 C.ar      1 <0>         0.0000 
     16 C16       112.4620   64.3429    8.0003 C.ar      1 <0>         0.1567 
     17 C17       116.4385   65.9321    8.5141 C.ar      1 <0>        -0.1387 
     18 C18       118.1786   67.1647    9.7570 C.ar      1 <0>         0.4087 
     19 C19       115.4636   67.4889   12.9702 C.ar      1 <0>         0.0000 
     20 C20       114.9488   68.0075   15.3288 C.ar      1 <0>         0.0850 
     21 C21       113.1763   67.1651   13.8557 C.ar      1 <0>         0.0850 
     22 C22       116.4435   67.3970   11.8572 C.ar      1 <0>         0.2310 
     23 C23       116.8802   66.5666    9.7097 C.ar      1 <0>         0.4086 
     24 C24       113.5959   67.6219   15.1260 C.ar      1 <0>         0.0850 
     25 N1        118.5905   67.8546   10.8484 N.ar      1 <0>        -0.5226 
     26 N2        116.0544   66.6858   10.7767 N.ar      1 <0>        -0.5225 
     27 N3        109.8396   65.1303    7.9430 N.pl3     1 <0>        -0.6527 
     28 O1        110.4748   62.8192    8.8940 O.2       1 <0>        -0.4680 
     29 O2        110.6518   63.2514    6.3850 O.2       1 <0>        -0.4680 
     30 O3        115.4943   68.4531   16.5143 O.3       1 <0>        -0.2850 
     31 O4        111.8517   66.8035   13.7256 O.3       1 <0>        -0.2850 
     32 O5        112.6683   67.7011   16.1337 O.3       1 <0>        -0.2850 
     33 S1        110.8022   63.7121    7.7727 S.o2      1 <0>         0.8327 
     34 H1        110.8126   66.2524    9.4337 H         1 <0>         0.0733 
     35 H2        109.5399   65.1591   10.0317 H         1 <0>         0.0733 
     36 H3        109.1027   66.6571    9.1859 H         1 <0>         0.0733 
     37 H4        115.5851   68.2807   18.5544 H         1 <0>         0.0300 
     38 H5        114.0074   68.7406   17.9327 H         1 <0>         0.0300 
     39 H6        114.5899   67.0552   17.7780 H         1 <0>         0.0300 
     40 H7        110.2936   66.2584   12.5011 H         1 <0>         0.0300 
     41 H8        111.4999   67.2820   11.7321 H         1 <0>         0.0300 
     42 H9        111.8475   65.5647   12.0490 H         1 <0>         0.0300 
     43 H10       111.1563   68.8637   16.9031 H         1 <0>         0.0300 
     44 H11       112.4364   69.7670   16.0938 H         1 <0>         0.0300 
     45 H12       111.2407   68.8672   15.1450 H         1 <0>         0.0300 
     46 H13       119.2416   66.3745    6.5945 H         1 <0>         0.1615 
     47 H14       116.9980   65.3564    6.5014 H         1 <0>         0.1615 
     48 H15       119.9671   67.5824    8.6289 H         1 <0>         0.1858 
     49 H16       115.0982   64.1727   10.1487 H         1 <0>         0.1150 
     50 H17       114.6824   66.4490    6.5076 H         1 <0>         0.1150 
     51 H18       112.8176   63.2689    9.8490 H         1 <0>         0.1150 
     52 H19       112.3983   65.5379    6.2003 H         1 <0>         0.1150 
     53 H20       116.8558   68.2859   14.4255 H         1 <0>         0.1150 
     54 H21       113.8031   66.7328   11.8312 H         1 <0>         0.1150 
     55 H22       118.0940   68.5513   12.7171 H         1 <0>         0.0868 
     56 H23       108.8998   64.9659    7.5882 H         1 <0>         0.3572 
@<TRIPOS>BOND
     1    1   27 1    
     2    1   34 1    
     3    1   35 1    
     4    1   36 1    
     5    2   30 1    
     6    2   37 1    
     7    2   38 1    
     8    2   39 1    
     9    3   31 1    
    10    3   40 1    
    11    3   41 1    
    12    3   42 1    
    13    4   32 1    
    14    4   43 1    
    15    4   44 1    
    16    4   45 1    
    17    5    6 ar   
    18    5    7 ar   
    19    5   46 1    
    20    6   17 ar   
    21    6   47 1    
    22    7   18 ar   
    23    7   48 1    
    24    8   10 ar   
    25    8   15 ar   
    26    8   49 1    
    27    9   11 ar   
    28    9   15 ar   
    29    9   50 1    
    30   10   16 ar   
    31   10   51 1    
    32   11   16 ar   
    33   11   52 1    
    34   12   19 ar   
    35   12   20 ar   
    36   12   53 1    
    37   13   19 ar   
    38   13   21 ar   
    39   13   54 1    
    40   14   22 ar   
    41   14   25 ar   
    42   14   55 1    
    43   15   17 1    
    44   16   33 1    
    45   17   23 ar   
    46   18   23 ar   
    47   18   25 ar   
    48   19   22 1    
    49   20   24 ar   
    50   20   30 1    
    51   21   24 ar   
    52   21   31 1    
    53   22   26 ar   
    54   23   26 ar   
    55   24   32 1    
    56   27   33 1    
    57   27   56 1    
    58   28   33 2    
    59   29   33 2    
@<TRIPOS>SUBSTRUCTURE
     1 <0>         1 GROUP             0       ****    0 ROOT    
@<TRIPOS>MOLECULE
jak2-ligand
56   59    1
SMALL
USER_CHARGES


@<TRIPOS>ATOM
      1 C1        111.5263   62.7957    5.1052 C.3       1 <0>         0.0222 
      2 C2        114.8449   67.9680   17.7044 C.3       1 <0>         0.1100 
      3 C3        111.3567   66.4591   12.3468 C.3       1 <0>         0.1100 
      4 C4        111.8249   68.8664   16.0060 C.3       1 <0>         0.1100 
      5 C5        118.5913   66.4365    7.4359 C.ar      1 <0>        -0.1399 
      6 C6        117.3170   65.8540    7.3917 C.ar      1 <0>        -0.1399 
      7 C7        119.0015   67.1163    8.5933 C.ar      1 <0>        -0.3245 
      8 C8        114.5632   64.4179    9.2475 C.ar      1 <0>        -0.1150 
      9 C9        114.2666   65.7990    7.2682 C.ar      1 <0>        -0.1150 
     10 C10       113.2831   63.8609    9.0566 C.ar      1 <0>        -0.1150 
     11 C11       112.9803   65.2587    7.0761 C.ar      1 <0>        -0.1150 
     12 C12       115.8131   67.9649   14.2179 C.ar      1 <0>        -0.1150 
     13 C13       114.1009   67.1026   12.7463 C.ar      1 <0>        -0.1150 
     14 C14       117.7271   67.9779   11.8616 C.ar      1 <0>         0.1442 
     15 C15       115.0791   65.3812    8.3482 C.ar      1 <0>         0.0000 
     16 C16       112.4998   64.2752    7.9615 C.ar      1 <0>         0.1567 
     17 C17       116.4435   65.9338    8.4986 C.ar      1 <0>        -0.1387 
     18 C18       118.1869   67.1649    9.7407 C.ar      1 <0>         0.4087 
     19 C19       115.4488   67.4922   12.9380 C.ar      1 <0>         0.0000 
     20 C20       114.9057   67.9943   15.2934 C.ar      1 <0>         0.0850 
     21 C21       113.1497   67.1652   13.7924 C.ar      1 <0>         0.0850 
     22 C22       116.4399   67.3963   11.8360 C.ar      1 <0>         0.2310 
     23 C23       116.8902   66.5615    9.6946 C.ar      1 <0>         0.4086 
     24 C24       113.5559   67.6125   15.0699 C.ar      1 <0>         0.0850 
     25 N1        118.5912   67.8588   10.8321 N.ar      1 <0>        -0.5226 
     26 N2        116.0600   66.6767   10.7586 N.ar      1 <0>        -0.5225 
     27 N3        111.2003   62.3651    6.4673 N.pl3     1 <0>        -0.6527 
     28 O1        110.0015   64.5593    7.0980 O.2       1 <0>        -0.4680 
     29 O2        110.4791   62.8081    8.8938 O.2       1 <0>        -0.4680 
     30 O3        115.4255   68.4295   16.4938 O.3       1 <0>        -0.2850 
     31 O4        111.8237   66.8149   13.6400 O.3       1 <0>        -0.2850 
     32 O5        112.6169   67.6904   16.0661 O.3       1 <0>        -0.2850 
     33 S1        110.8868   63.5421    7.6860 S.o2      1 <0>         0.8327 
     34 H1        112.4757   63.3302    5.0864 H         1 <0>         0.0733 
     35 H2        110.7474   63.4501    4.7127 H         1 <0>         0.0733 
     36 H3        111.6146   61.9288    4.4500 H         1 <0>         0.0733 
     37 H4        115.5726   68.0751   18.5088 H         1 <0>         0.0300 
     38 H5        113.9729   68.5625   17.9775 H         1 <0>         0.0300 
     39 H6        114.5691   66.9136   17.6522 H         1 <0>         0.0300 
     40 H7        110.2888   66.2456   12.3963 H         1 <0>         0.0300 
     41 H8        111.4971   67.2748   11.6363 H         1 <0>         0.0300 
     42 H9        111.8552   65.5650   11.9722 H         1 <0>         0.0300 
     43 H10       111.1173   68.8684   16.8342 H         1 <0>         0.0300 
     44 H11       112.4447   69.7602   16.0946 H         1 <0>         0.0300 
     45 H12       111.2533   68.9257   15.0791 H         1 <0>         0.0300 
     46 H13       119.2377   66.3915    6.5699 H         1 <0>         0.1615 
     47 H14       116.9938   65.3708    6.4792 H         1 <0>         0.1615 
     48 H15       119.9727   67.5899    8.6091 H         1 <0>         0.1858 
     49 H16       115.1624   64.0866   10.0831 H         1 <0>         0.1150 
     50 H17       114.6355   66.5377    6.5705 H         1 <0>         0.1150 
     51 H18       112.9139   63.1120    9.7423 H         1 <0>         0.1150 
     52 H19       112.3741   65.5833    6.2425 H         1 <0>         0.1150 
     53 H20       116.8245   68.2837   14.4144 H         1 <0>         0.1150 
     54 H21       113.7988   66.7492   11.7726 H         1 <0>         0.1150 
     55 H22       118.0779   68.5619   12.6992 H         1 <0>         0.0868 
     56 H23       110.4638   61.6595    6.4702 H         1 <0>         0.3572 
@<TRIPOS>BOND
     1    1   27 1    
     2    1   34 1    
     3    1   35 1    
     4    1   36 1    
     5    2   30 1    
     6    2   37 1    
     7    2   38 1    
     8    2   39 1    
     9    3   31 1    
    10    3   40 1    
    11    3   41 1    
    12    3   42 1    
    13    4   32 1    
    14    4   43 1    
    15    4   44 1    
    16    4   45 1    
    17    5    6 ar   
    18    5    7 ar   
    19    5   46 1    
    20    6   17 ar   
    21    6   47 1    
    22    7   18 ar   
    23    7   48 1    
    24    8   10 ar   
    25    8   15 ar   
    26    8   49 1    
    27    9   11 ar   
    28    9   15 ar   
    29    9   50 1    
    30   10   16 ar   
    31   10   51 1    
    32   11   16 ar   
    33   11   52 1    
    34   12   19 ar   
    35   12   20 ar   
    36   12   53 1    
    37   13   19 ar   
    38   13   21 ar   
    39   13   54 1    
    40   14   22 ar   
    41   14   25 ar   
    42   14   55 1    
    43   15   17 1    
    44   16   33 1    
    45   17   23 ar   
    46   18   23 ar   
    47   18   25 ar   
    48   19   22 1    
    49   20   24 ar   
    50   20   30 1    
    51   21   24 ar   
    52   21   31 1    
    53   22   26 ar   
    54   23   26 ar   
    55   24   32 1    
    56   27   33 1    
    57   27   56 1    
    58   28   33 2    
    59   29   33 2    
@<TRIPOS>SUBSTRUCTURE
     1 <0>         1 GROUP             0       ****    0 ROOT    
@<TRIPOS>MOLECULE
jak2-ligand
56   59    1
SMALL
USER_CHARGES


@<TRIPOS>ATOM
      1 C1        110.3588   64.8953    6.0694 C.3       1 <0>         0.0222 
      2 C2        114.8791   68.4437   17.6818 C.3       1 <0>         0.1100 
      3 C3        111.5174   66.4625   12.3076 C.3       1 <0>         0.1100 
      4 C4        112.0331   66.4019   16.3380 C.3       1 <0>         0.1100 
      5 C5        118.7191   66.4248    7.4360 C.ar      1 <0>        -0.1399 
      6 C6        117.4793   65.7729    7.4342 C.ar      1 <0>        -0.1399 
      7 C7        119.1079   67.1649    8.5605 C.ar      1 <0>        -0.3245 
      8 C8        114.6471   64.5451    9.5191 C.ar      1 <0>        -0.1150 
      9 C9        114.6061   65.1650    7.1748 C.ar      1 <0>        -0.1150 
     10 C10       113.3988   63.9134    9.3880 C.ar      1 <0>        -0.1150 
     11 C11       113.3854   64.4885    7.0195 C.ar      1 <0>        -0.1150 
     12 C12       115.9546   67.9678   14.2087 C.ar      1 <0>        -0.1150 
     13 C13       114.2306   67.1629   12.7316 C.ar      1 <0>        -0.1150 
     14 C14       117.8244   68.1036   11.8049 C.ar      1 <0>         0.1442 
     15 C15       115.2695   65.1986    8.4240 C.ar      1 <0>         0.0000 
     16 C16       112.7699   63.8882    8.1336 C.ar      1 <0>         0.1567 
     17 C17       116.5940   65.8648    8.5353 C.ar      1 <0>        -0.1387 
     18 C18       118.2903   67.2172    9.7082 C.ar      1 <0>         0.4087 
     19 C19       115.5777   67.5468   12.9202 C.ar      1 <0>         0.0000 
     20 C20       115.0587   67.9805   15.2941 C.ar      1 <0>         0.0850 
     21 C21       113.2898   67.1753   13.7888 C.ar      1 <0>         0.0850 
     22 C22       116.5554   67.4911   11.8076 C.ar      1 <0>         0.2310 
     23 C23       117.0131   66.5819    9.6944 C.ar      1 <0>         0.4086 
     24 C24       113.7116   67.5603   15.0911 C.ar      1 <0>         0.0850 
     25 N1        118.6792   67.9650   10.7699 N.ar      1 <0>        -0.5226 
     26 N2        116.1860   66.7441   10.7509 N.ar      1 <0>        -0.5225 
     27 N3        110.1748   64.3715    7.4048 N.pl3     1 <0>        -0.6527 
     28 O1        110.6572   62.7650    9.2927 O.2       1 <0>        -0.4680 
     29 O2        111.2672   62.0853    6.9018 O.2       1 <0>        -0.4680 
     30 O3        115.6295   68.4020   16.4797 O.3       1 <0>        -0.2850 
     31 O4        111.9573   66.8677   13.5961 O.3       1 <0>        -0.2850 
     32 O5        112.8226   67.5684   16.1434 O.3       1 <0>        -0.2850 
     33 S1        111.1752   63.1008    7.9617 S.o2      1 <0>         0.8327 
     34 H1        110.7763   64.1457    5.3961 H         1 <0>         0.0733 
     35 H2        110.9966   65.7792    6.0811 H         1 <0>         0.0733 
     36 H3        109.3914   65.1625    5.6886 H         1 <0>         0.0733 
     37 H4        115.5226   68.8001   18.4859 H         1 <0>         0.0300 
     38 H5        114.0404   69.1373   17.6105 H         1 <0>         0.0300 
     39 H6        114.5243   67.4526   17.9657 H         1 <0>         0.0300 
     40 H7        110.4527   66.2333   12.3484 H         1 <0>         0.0300 
     41 H8        111.6536   67.2565   11.5725 H         1 <0>         0.0300 
     42 H9        112.0356   65.5643   11.9698 H         1 <0>         0.0300 
     43 H10       111.9423   66.2049   17.4057 H         1 <0>         0.0300 
     44 H11       111.0278   66.5556   15.9483 H         1 <0>         0.0300 
     45 H12       112.4622   65.5135   15.8736 H         1 <0>         0.0300 
     46 H13       119.3636   66.3665    6.5695 H         1 <0>         0.1615 
     47 H14       117.2052   65.2128    6.5512 H         1 <0>         0.1615 
     48 H15       120.0633   67.6716    8.5523 H         1 <0>         0.1858 
     49 H16       115.1306   64.5064   10.4826 H         1 <0>         0.1150 
     50 H17       115.0383   65.6424    6.3065 H         1 <0>         0.1150 
     51 H18       112.9417   63.4379   10.2432 H         1 <0>         0.1150 
     52 H19       112.9337   64.4415    6.0413 H         1 <0>         0.1150 
     53 H20       116.9680   68.2879   14.3944 H         1 <0>         0.1150 
     54 H21       113.9207   66.8642   11.7428 H         1 <0>         0.1150 
     55 H22       118.1684   68.7147   12.6263 H         1 <0>         0.0868 
     56 H23       110.0555   65.1024    8.1055 H         1 <0>         0.3572 
@<TRIPOS>BOND
     1    1   27 1    
     2    1   34 1    
     3    1   35 1    
     4    1   36 1    
     5    2   30 1    
     6    2   37 1    
     7    2   38 1    
     8    2   39 1    
     9    3   31 1    
    10    3   40 1    
    11    3   41 1    
    12    3   42 1    
    13    4   32 1    
    14    4   43 1    
    15    4   44 1    
    16    4   45 1    
    17    5    6 ar   
    18    5    7 ar   
    19    5   46 1    
    20    6   17 ar   
    21    6   47 1    
    22    7   18 ar   
    23    7   48 1    
    24    8   10 ar   
    25    8   15 ar   
    26    8   49 1    
    27    9   11 ar   
    28    9   15 ar   
    29    9   50 1    
    30   10   16 ar   
    31   10   51 1    
    32   11   16 ar   
    33   11   52 1    
    34   12   19 ar   
    35   12   20 ar   
    36   12   53 1    
    37   13   19 ar   
    38   13   21 ar   
    39   13   54 1    
    40   14   22 ar   
    41   14   25 ar   
    42   14   55 1    
    43   15   17 1    
    44   16   33 1    
    45   17   23 ar   
    46   18   23 ar   
    47   18   25 ar   
    48   19   22 1    
    49   20   24 ar   
    50   20   30 1    
    51   21   24 ar   
    52   21   31 1    
    53   22   26 ar   
    54   23   26 ar   
    55   24   32 1    
    56   27   33 1    
    57   27   56 1    
    58   28   33 2    
    59   29   33 2    
@<TRIPOS>SUBSTRUCTURE
     1 <0>         1 GROUP             0       ****    0 ROOT    
@<TRIPOS>MOLECULE
jak2-ligand
56   59    1
SMALL
USER_CHARGES


@<TRIPOS>ATOM
      1 C1        109.7348   63.6702    5.5314 C.3       1 <0>         0.0222 
      2 C2        115.4073   69.5648   16.9136 C.3       1 <0>         0.1100 
      3 C3        111.3033   66.4572   12.2790 C.3       1 <0>         0.1100 
      4 C4        112.6124   68.7553   16.8502 C.3       1 <0>         0.1100 
      5 C5        118.7313   66.4667    7.5845 C.ar      1 <0>        -0.1399 
      6 C6        117.4612   65.8755    7.4822 C.ar      1 <0>        -0.1399 
      7 C7        119.0889   67.1552    8.7558 C.ar      1 <0>        -0.3245 
      8 C8        114.6467   64.5783    9.4439 C.ar      1 <0>        -0.1150 
      9 C9        114.4759   65.4864    7.1930 C.ar      1 <0>        -0.1150 
     10 C10       113.4001   63.9430    9.2913 C.ar      1 <0>        -0.1150 
     11 C11       113.2269   64.8552    7.0309 C.ar      1 <0>        -0.1150 
     12 C12       115.7608   67.7827   14.2977 C.ar      1 <0>        -0.1150 
     13 C13       114.0374   67.1002   12.7342 C.ar      1 <0>        -0.1150 
     14 C14       117.6703   67.9914   11.9711 C.ar      1 <0>         0.1442 
     15 C15       115.2059   65.3435    8.3943 C.ar      1 <0>         0.0000 
     16 C16       112.6973   64.0801    8.0796 C.ar      1 <0>         0.1567 
     17 C17       116.5362   65.9647    8.5433 C.ar      1 <0>        -0.1387 
     18 C18       118.1915   67.2556    9.8372 C.ar      1 <0>         0.4087 
     19 C19       115.3905   67.4230   12.9804 C.ar      1 <0>         0.0000 
     20 C20       114.8127   67.8389   15.3461 C.ar      1 <0>         0.0850 
     21 C21       113.0681   67.1379   13.7666 C.ar      1 <0>         0.0850 
     22 C22       116.3967   67.3865   11.8935 C.ar      1 <0>         0.2310 
     23 C23       116.9033   66.6476    9.7340 C.ar      1 <0>         0.4086 
     24 C24       113.4680   67.5189   15.0669 C.ar      1 <0>         0.0850 
     25 N1        118.5583   67.9231   10.9567 N.ar      1 <0>        -0.5226 
     26 N2        116.0392   66.7198   10.7747 N.ar      1 <0>        -0.5225 
     27 N3        110.3228   64.2671    6.7297 N.pl3     1 <0>        -0.6527 
     28 O1        110.3857   63.2788    9.1076 O.2       1 <0>        -0.4680 
     29 O2        111.3883   61.9580    7.1613 O.2       1 <0>        -0.4680 
     30 O3        115.1219   68.1996   16.6420 O.3       1 <0>        -0.2850 
     31 O4        111.7382   66.8190   13.5812 O.3       1 <0>        -0.2850 
     32 O5        112.5511   67.5624   16.0855 O.3       1 <0>        -0.2850 
     33 S1        111.1375   63.2364    7.8447 S.o2      1 <0>         0.8327 
     34 H1        109.1964   62.7599    5.7944 H         1 <0>         0.0733 
     35 H2        110.5142   63.4189    4.8114 H         1 <0>         0.0733 
     36 H3        109.0353   64.3640    5.0646 H         1 <0>         0.0733 
     37 H4        115.6053   69.6860   17.9784 H         1 <0>         0.0300 
     38 H5        116.2930   69.9021   16.3736 H         1 <0>         0.0300 
     39 H6        114.5637   70.2086   16.6613 H         1 <0>         0.0300 
     40 H7        110.2373   66.2318   12.3066 H         1 <0>         0.0300 
     41 H8        111.4488   67.2724   11.5690 H         1 <0>         0.0300 
     42 H9        111.8188   65.5658   11.9191 H         1 <0>         0.0300 
     43 H10       111.8957   68.6999   17.6693 H         1 <0>         0.0300 
     44 H11       113.6048   68.8937   17.2820 H         1 <0>         0.0300 
     45 H12       112.3679   69.6330   16.2511 H         1 <0>         0.0300 
     46 H13       119.4297   66.3957    6.7631 H         1 <0>         0.1615 
     47 H14       117.1902   65.3543    6.5751 H         1 <0>         0.1615 
     48 H15       120.0653   67.6116    8.8281 H         1 <0>         0.1858 
     49 H16       115.1890   64.4609   10.3710 H         1 <0>         0.1150 
     50 H17       114.8855   66.0677    6.3798 H         1 <0>         0.1150 
     51 H18       112.9969   63.3478   10.0970 H         1 <0>         0.1150 
     52 H19       112.6828   64.9538    6.1031 H         1 <0>         0.1150 
     53 H20       116.7953   68.0189   14.4932 H         1 <0>         0.1150 
     54 H21       113.7496   66.8304   11.7308 H         1 <0>         0.1150 
     55 H22       117.9869   68.5421   12.8442 H         1 <0>         0.0868 
     56 H23       110.9016   65.0756    6.5043 H         1 <0>         0.3572 
@<TRIPOS>BOND
     1    1   27 1    
     2    1   34 1    
     3    1   35 1    
     4    1   36 1    
     5    2   30 1    
     6    2   37 1    
     7    2   38 1    
     8    2   39 1    
     9    3   31 1    
    10    3   40 1    
    11    3   41 1    
    12    3   42 1    
    13    4   32 1    
    14    4   43 1    
    15    4   44 1    
    16    4   45 1    
    17    5    6 ar   
    18    5    7 ar   
    19    5   46 1    
    20    6   17 ar   
    21    6   47 1    
    22    7   18 ar   
    23    7   48 1    
    24    8   10 ar   
    25    8   15 ar   
    26    8   49 1    
    27    9   11 ar   
    28    9   15 ar   
    29    9   50 1    
    30   10   16 ar   
    31   10   51 1    
    32   11   16 ar   
    33   11   52 1    
    34   12   19 ar   
    35   12   20 ar   
    36   12   53 1    
    37   13   19 ar   
    38   13   21 ar   
    39   13   54 1    
    40   14   22 ar   
    41   14   25 ar   
    42   14   55 1    
    43   15   17 1    
    44   16   33 1    
    45   17   23 ar   
    46   18   23 ar   
    47   18   25 ar   
    48   19   22 1    
    49   20   24 ar   
    50   20   30 1    
    51   21   24 ar   
    52   21   31 1    
    53   22   26 ar   
    54   23   26 ar   
    55   24   32 1    
    56   27   33 1    
    57   27   56 1    
    58   28   33 2    
    59   29   33 2    
@<TRIPOS>SUBSTRUCTURE
     1 <0>         1 GROUP             0       ****    0 ROOT    
@<TRIPOS>MOLECULE
jak2-ligand
56   59    1
SMALL
USER_CHARGES


@<TRIPOS>ATOM
      1 C1        110.6573   65.1650    6.0943 C.3       1 <0>         0.0222 
      2 C2        111.1636   65.9682   12.1314 C.3       1 <0>         0.1100 
      3 C3        115.1349   69.5647   16.7747 C.3       1 <0>         0.1100 
      4 C4        112.0799   66.1194   16.8518 C.3       1 <0>         0.1100 
      5 C5        118.7523   66.6822    7.8892 C.ar      1 <0>        -0.1399 
      6 C6        117.5590   65.9647    7.7395 C.ar      1 <0>        -0.1399 
      7 C7        118.9913   67.3734    9.0844 C.ar      1 <0>        -0.3245 
      8 C8        114.6232   64.4948    9.5010 C.ar      1 <0>        -0.1150 
      9 C9        114.7639   65.1649    7.1804 C.ar      1 <0>        -0.1150 
     10 C10       113.4203   63.8111    9.2554 C.ar      1 <0>        -0.1150 
     11 C11       113.5985   64.4270    6.9055 C.ar      1 <0>        -0.1150 
     12 C12       113.8147   66.7794   12.8146 C.ar      1 <0>        -0.1150 
     13 C13       115.2529   67.9048   14.4138 C.ar      1 <0>        -0.1150 
     14 C14       117.4112   68.0150   12.2603 C.ar      1 <0>         0.1442 
     15 C15       115.3043   65.2178    8.4873 C.ar      1 <0>         0.0000 
     16 C16       112.9016   63.7921    7.9526 C.ar      1 <0>         0.1567 
     17 C17       116.5672   65.9647    8.7496 C.ar      1 <0>        -0.1387 
     18 C18       118.0756   67.3369   10.1480 C.ar      1 <0>         0.4087 
     19 C19       115.0776   67.3508   13.1209 C.ar      1 <0>         0.0000 
     20 C20       112.7596   66.7475   13.7537 C.ar      1 <0>         0.0850 
     21 C21       114.2116   67.8732   15.3733 C.ar      1 <0>         0.0850 
     22 C22       116.1612   67.3790   12.1018 C.ar      1 <0>         0.2310 
     23 C23       116.8333   66.6563    9.9705 C.ar      1 <0>         0.4086 
     24 C24       112.9815   67.2672   15.0431 C.ar      1 <0>         0.0850 
     25 N1        118.3547   67.9985   11.2946 N.ar      1 <0>        -0.5226 
     26 N2        115.9065   66.7173   10.9541 N.ar      1 <0>        -0.5225 
     27 N3        110.3224   64.3576    7.2576 N.pl3     1 <0>        -0.6527 
     28 O1        110.8012   62.4538    8.8933 O.2       1 <0>        -0.4680 
     29 O2        111.4411   62.1739    6.4318 O.2       1 <0>        -0.4680 
     30 O3        111.5100   66.2300   13.4851 O.3       1 <0>        -0.2850 
     31 O4        114.3340   68.4020   16.6379 O.3       1 <0>        -0.2850 
     32 O5        111.9693   67.2224   15.9658 O.3       1 <0>        -0.2850 
     33 S1        111.3233   63.0092    7.6365 S.o2      1 <0>         0.8327 
     34 H1        111.0310   64.5294    5.2943 H         1 <0>         0.0733 
     35 H2        111.4108   65.9108    6.3460 H         1 <0>         0.0733 
     36 H3        109.7913   65.6946    5.7230 H         1 <0>         0.0733 
     37 H4        110.1189   65.6610   12.0846 H         1 <0>         0.0300 
     38 H5        111.2704   66.8622   11.5147 H         1 <0>         0.0300 
     39 H6        111.7607   65.1650   11.6989 H         1 <0>         0.0300 
     40 H7        115.0266   69.9594   17.7845 H         1 <0>         0.0300 
     41 H8        116.1911   69.3581   16.6193 H         1 <0>         0.0300 
     42 H9        114.8169   70.3480   16.0841 H         1 <0>         0.0300 
     43 H10       111.2259   66.1076   17.5294 H         1 <0>         0.0300 
     44 H11       112.0880   65.1743   16.3060 H         1 <0>         0.0300 
     45 H12       112.9876   66.1818   17.4543 H         1 <0>         0.0300 
     46 H13       119.4820   66.7006    7.0911 H         1 <0>         0.1615 
     47 H14       117.4032   65.4307    6.8123 H         1 <0>         0.1615 
     48 H15       119.9083   67.9303    9.1965 H         1 <0>         0.1858 
     49 H16       115.0313   64.4484   10.4940 H         1 <0>         0.1150 
     50 H17       115.2453   65.6791    6.3607 H         1 <0>         0.1150 
     51 H18       112.9114   63.3025   10.0612 H         1 <0>         0.1150 
     52 H19       113.2322   64.3795    5.8908 H         1 <0>         0.1150 
     53 H20       113.6512   66.3679   11.8314 H         1 <0>         0.1150 
     54 H21       116.1990   68.3482   14.6777 H         1 <0>         0.1150 
     55 H22       117.6713   68.5599   13.1548 H         1 <0>         0.0868 
     56 H23       110.1434   64.9318    8.0804 H         1 <0>         0.3572 
@<TRIPOS>BOND
     1    1   27 1    
     2    1   34 1    
     3    1   35 1    
     4    1   36 1    
     5    2   30 1    
     6    2   37 1    
     7    2   38 1    
     8    2   39 1    
     9    3   31 1    
    10    3   40 1    
    11    3   41 1    
    12    3   42 1    
    13    4   32 1    
    14    4   43 1    
    15    4   44 1    
    16    4   45 1    
    17    5    6 ar   
    18    5    7 ar   
    19    5   46 1    
    20    6   17 ar   
    21    6   47 1    
    22    7   18 ar   
    23    7   48 1    
    24    8   10 ar   
    25    8   15 ar   
    26    8   49 1    
    27    9   11 ar   
    28    9   15 ar   
    29    9   50 1    
    30   10   16 ar   
    31   10   51 1    
    32   11   16 ar   
    33   11   52 1    
    34   12   19 ar   
    35   12   20 ar   
    36   12   53 1    
    37   13   19 ar   
    38   13   21 ar   
    39   13   54 1    
    40   14   22 ar   
    41   14   25 ar   
    42   14   55 1    
    43   15   17 1    
    44   16   33 1    
    45   17   23 ar   
    46   18   23 ar   
    47   18   25 ar   
    48   19   22 1    
    49   20   24 ar   
    50   20   30 1    
    51   21   24 ar   
    52   21   31 1    
    53   22   26 ar   
    54   23   26 ar   
    55   24   32 1    
    56   27   33 1    
    57   27   56 1    
    58   28   33 2    
    59   29   33 2    
@<TRIPOS>SUBSTRUCTURE
     1 <0>         1 GROUP             0       ****    0 ROOT    
@<TRIPOS>MOLECULE
jak2-ligand
56   59    1
SMALL
USER_CHARGES


@<TRIPOS>ATOM
      1 C1        110.8055   62.7080    5.0652 C.3       1 <0>         0.0222 
      2 C2        115.5920   69.5648   16.2845 C.3       1 <0>         0.1100 
      3 C3        110.9299   66.1473   12.2963 C.3       1 <0>         0.1100 
      4 C4        112.2566   68.4298   16.9657 C.3       1 <0>         0.1100 
      5 C5        118.1470   66.0388    7.3146 C.ar      1 <0>        -0.1399 
      6 C6        116.8324   65.5543    7.2397 C.ar      1 <0>        -0.1399 
      7 C7        118.5914   66.6576    8.4930 C.ar      1 <0>        -0.3245 
      8 C8        114.0242   64.2046    9.0639 C.ar      1 <0>        -0.1150 
      9 C9        113.7565   65.6819    7.1488 C.ar      1 <0>        -0.1150 
     10 C10       112.7073   63.7383    8.8954 C.ar      1 <0>        -0.1150 
     11 C11       112.4327   65.2309    6.9792 C.ar      1 <0>        -0.1150 
     12 C12       115.4121   67.6825   14.0747 C.ar      1 <0>        -0.1150 
     13 C13       113.6852   66.7667   12.6564 C.ar      1 <0>        -0.1150 
     14 C14       117.3221   67.5855   11.7354 C.ar      1 <0>         0.1442 
     15 C15       114.5693   65.1732    8.1892 C.ar      1 <0>         0.0000 
     16 C16       111.9173   64.2501    7.8481 C.ar      1 <0>         0.1567 
     17 C17       115.9590   65.6501    8.3442 C.ar      1 <0>        -0.1387 
     18 C18       117.7535   66.7649    9.6197 C.ar      1 <0>         0.4087 
     19 C19       115.0336   67.1651   12.8168 C.ar      1 <0>         0.0000 
     20 C20       114.4921   67.8214   15.1371 C.ar      1 <0>         0.0850 
     21 C21       112.7428   66.8844   13.7053 C.ar      1 <0>         0.0850 
     22 C22       116.0132   67.0479   11.7063 C.ar      1 <0>         0.2310 
     23 C23       116.4261   66.2407    9.5506 C.ar      1 <0>         0.4086 
     24 C24       113.1421   67.4110   14.9535 C.ar      1 <0>         0.0850 
     25 N1        118.1910   67.4236   10.7177 N.ar      1 <0>        -0.5226 
     26 N2        115.6003   66.3650   10.6158 N.ar      1 <0>        -0.5225 
     27 N3        110.5122   62.3651    6.4592 N.pl3     1 <0>        -0.6527 
     28 O1        109.4415   64.6582    6.9618 O.2       1 <0>        -0.4680 
     29 O2        109.8052   62.9827    8.8565 O.2       1 <0>        -0.4680 
     30 O3        114.9340   68.3072   16.3432 O.3       1 <0>        -0.2850 
     31 O4        111.4166   66.5240   13.5771 O.3       1 <0>        -0.2850 
     32 O5        112.1505   67.4836   15.9135 O.3       1 <0>        -0.2850 
     33 S1        110.2591   63.6208    7.6106 S.o2      1 <0>         0.8327 
     34 H1        111.6923   63.3379    4.9999 H         1 <0>         0.0733 
     35 H2        109.9671   63.2440    4.6204 H         1 <0>         0.0733 
     36 H3        110.9913   61.8046    4.4853 H         1 <0>         0.0733 
     37 H4        115.7100   69.9465   17.2988 H         1 <0>         0.0300 
     38 H5        116.5867   69.5038   15.8393 H         1 <0>         0.0300 
     39 H6        114.9955   70.2883   15.7254 H         1 <0>         0.0300 
     40 H7        109.8560   65.9696   12.3621 H         1 <0>         0.0300 
     41 H8        111.0856   66.9391   11.5625 H         1 <0>         0.0300 
     42 H9        111.3938   65.2268   11.9398 H         1 <0>         0.0300 
     43 H10       111.2784   68.5551   17.4300 H         1 <0>         0.0300 
     44 H11       112.9400   68.0876   17.7439 H         1 <0>         0.0300 
     45 H12       112.5702   69.4097   16.5999 H         1 <0>         0.0300 
     46 H13       118.7985   65.9721    6.4538 H         1 <0>         0.1615 
     47 H14       116.4880   65.1160    6.3130 H         1 <0>         0.1615 
     48 H15       119.5905   67.0700    8.5293 H         1 <0>         0.1858 
     49 H16       114.6258   63.8055    9.8674 H         1 <0>         0.1150 
     50 H17       114.1504   66.4265    6.4715 H         1 <0>         0.1150 
     51 H18       112.3140   62.9859    9.5630 H         1 <0>         0.1150 
     52 H19       111.8246   65.6250    6.1778 H         1 <0>         0.1150 
     53 H20       116.4360   67.9694   14.2487 H         1 <0>         0.1150 
     54 H21       113.3748   66.3629   11.7059 H         1 <0>         0.1150 
     55 H22       117.7005   68.1446   12.5773 H         1 <0>         0.0868 
     56 H23       109.7952   61.6429    6.5482 H         1 <0>         0.3572 
@<TRIPOS>BOND
     1    1   27 1    
     2    1   34 1    
     3    1   35 1    
     4    1   36 1    
     5    2   30 1    
     6    2   37 1    
     7    2   38 1    
     8    2   39 1    
     9    3   31 1    
    10    3   40 1    
    11    3   41 1    
    12    3   42 1    
    13    4   32 1    
    14    4   43 1    
    15    4   44 1    
    16    4   45 1    
    17    5    6 ar   
    18    5    7 ar   
    19    5   46 1    
    20    6   17 ar   
    21    6   47 1    
    22    7   18 ar   
    23    7   48 1    
    24    8   10 ar   
    25    8   15 ar   
    26    8   49 1    
    27    9   11 ar   
    28    9   15 ar   
    29    9   50 1    
    30   10   16 ar   
    31   10   51 1    
    32   11   16 ar   
    33   11   52 1    
    34   12   19 ar   
    35   12   20 ar   
    36   12   53 1    
    37   13   19 ar   
    38   13   21 ar   
    39   13   54 1    
    40   14   22 ar   
    41   14   25 ar   
    42   14   55 1    
    43   15   17 1    
    44   16   33 1    
    45   17   23 ar   
    46   18   23 ar   
    47   18   25 ar   
    48   19   22 1    
    49   20   24 ar   
    50   20   30 1    
    51   21   24 ar   
    52   21   31 1    
    53   22   26 ar   
    54   23   26 ar   
    55   24   32 1    
    56   27   33 1    
    57   27   56 1    
    58   28   33 2    
    59   29   33 2    
@<TRIPOS>SUBSTRUCTURE
     1 <0>         1 GROUP             0       ****    0 ROOT    
@<TRIPOS>MOLECULE
jak2-ligand
56   59    1
SMALL
USER_CHARGES


@<TRIPOS>ATOM
      1 C1        108.6907   64.2750    7.2878 C.3       1 <0>         0.0222 
      2 C2        114.6442   69.6331   16.9723 C.3       1 <0>         0.1100 
      3 C3        111.0666   66.0450   14.2654 C.3       1 <0>         0.1100 
      4 C4        112.9287   66.6206   17.1440 C.3       1 <0>         0.1100 
      5 C5        118.6254   66.5214    7.4790 C.ar      1 <0>        -0.1399 
      6 C6        117.3603   65.9240    7.4117 C.ar      1 <0>        -0.1399 
      7 C7        119.0195   67.1650    8.6595 C.ar      1 <0>        -0.3245 
      8 C8        114.5908   64.4672    9.3054 C.ar      1 <0>        -0.1150 
      9 C9        114.4062   65.5465    7.1375 C.ar      1 <0>        -0.1150 
     10 C10       113.3702   63.8038    9.0892 C.ar      1 <0>        -0.1150 
     11 C11       113.1862   64.8816    6.9053 C.ar      1 <0>        -0.1150 
     12 C12       115.7894   67.9557   14.2543 C.ar      1 <0>        -0.1150 
     13 C13       114.0844   67.1637   12.7381 C.ar      1 <0>        -0.1150 
     14 C14       117.7223   67.9660   11.9169 C.ar      1 <0>         0.1442 
     15 C15       115.1380   65.3372    8.3317 C.ar      1 <0>         0.0000 
     16 C16       112.6804   64.0007    7.8800 C.ar      1 <0>         0.1567 
     17 C17       116.4699   65.9640    8.5096 C.ar      1 <0>        -0.1387 
     18 C18       118.1906   67.1680    9.7960 C.ar      1 <0>         0.4087 
     19 C19       115.4390   67.5026   12.9628 C.ar      1 <0>         0.0000 
     20 C20       114.8474   67.9936   15.2995 C.ar      1 <0>         0.0850 
     21 C21       113.1237   67.1776   13.7641 C.ar      1 <0>         0.0850 
     22 C22       116.4341   67.3963   11.8708 C.ar      1 <0>         0.2310 
     23 C23       116.8943   66.5739    9.7251 C.ar      1 <0>         0.4086 
     24 C24       113.5121   67.5636   15.0752 C.ar      1 <0>         0.0850 
     25 N1        118.5911   67.8472   10.8960 N.ar      1 <0>        -0.5226 
     26 N2        116.0585   66.6822   10.7862 N.ar      1 <0>        -0.5225 
     27 N3        110.1132   64.3603    6.9860 N.pl3     1 <0>        -0.6527 
     28 O1        110.6045   62.7037    8.8939 O.2       1 <0>        -0.4680 
     29 O2        111.3561   62.1578    6.5108 O.2       1 <0>        -0.4680 
     30 O3        115.2860   68.4492   16.5177 O.3       1 <0>        -0.2850 
     31 O4        111.8461   66.8343   13.3802 O.3       1 <0>        -0.2850 
     32 O5        112.6005   67.5313   16.1014 O.3       1 <0>        -0.2850 
     33 S1        111.1475   63.1293    7.5943 S.o2      1 <0>         0.8327 
     34 H1        108.5339   64.2425    8.3665 H         1 <0>         0.0733 
     35 H2        108.2635   63.3768    6.8408 H         1 <0>         0.0733 
     36 H3        108.1824   65.1493    6.8967 H         1 <0>         0.0733 
     37 H4        115.2234   70.0576   17.7921 H         1 <0>         0.0300 
     38 H5        114.5881   70.3841   16.1835 H         1 <0>         0.0300 
     39 H6        113.6383   69.4470   17.3462 H         1 <0>         0.0300 
     40 H7        110.2951   65.5308   13.6917 H         1 <0>         0.0300 
     41 H8        111.6685   65.2808   14.7616 H         1 <0>         0.0300 
     42 H9        110.5588   66.6599   15.0115 H         1 <0>         0.0300 
     43 H10       113.6590   67.0373   17.8363 H         1 <0>         0.0300 
     44 H11       112.0327   66.3776   17.7142 H         1 <0>         0.0300 
     45 H12       113.3224   65.6842   16.7482 H         1 <0>         0.0300 
     46 H13       119.2807   66.5033    6.6186 H         1 <0>         0.1615 
     47 H14       117.0654   65.4482    6.4859 H         1 <0>         0.1615 
     48 H15       119.9869   67.6434    8.7001 H         1 <0>         0.1858 
     49 H16       115.1287   64.2748   10.2213 H         1 <0>         0.1150 
     50 H17       114.7933   66.2055    6.3728 H         1 <0>         0.1150 
     51 H18       112.9810   63.1323    9.8402 H         1 <0>         0.1150 
     52 H19       112.6551   65.0350    5.9770 H         1 <0>         0.1150 
     53 H20       116.7966   68.2716   14.4753 H         1 <0>         0.1150 
     54 H21       113.7579   66.8533   11.7559 H         1 <0>         0.1150 
     55 H22       118.0682   68.5424   12.7616 H         1 <0>         0.0868 
     56 H23       110.3044   64.5632    6.0025 H         1 <0>         0.3572 
@<TRIPOS>BOND
     1    1   27 1    
     2    1   34 1    
     3    1   35 1    
     4    1   36 1    
     5    2   30 1    
     6    2   37 1    
     7    2   38 1    
     8    2   39 1    
     9    3   31 1    
    10    3   40 1    
    11    3   41 1    
    12    3   42 1    
    13    4   32 1    
    14    4   43 1    
    15    4   44 1    
    16    4   45 1    
    17    5    6 ar   
    18    5    7 ar   
    19    5   46 1    
    20    6   17 ar   
    21    6   47 1    
    22    7   18 ar   
    23    7   48 1    
    24    8   10 ar   
    25    8   15 ar   
    26    8   49 1    
    27    9   11 ar   
    28    9   15 ar   
    29    9   50 1    
    30   10   16 ar   
    31   10   51 1    
    32   11   16 ar   
    33   11   52 1    
    34   12   19 ar   
    35   12   20 ar   
    36   12   53 1    
    37   13   19 ar   
    38   13   21 ar   
    39   13   54 1    
    40   14   22 ar   
    41   14   25 ar   
    42   14   55 1    
    43   15   17 1    
    44   16   33 1    
    45   17   23 ar   
    46   18   23 ar   
    47   18   25 ar   
    48   19   22 1    
    49   20   24 ar   
    50   20   30 1    
    51   21   24 ar   
    52   21   31 1    
    53   22   26 ar   
    54   23   26 ar   
    55   24   32 1    
    56   27   33 1    
    57   27   56 1    
    58   28   33 2    
    59   29   33 2    
@<TRIPOS>SUBSTRUCTURE
     1 <0>         1 GROUP             0       ****    0 ROOT    
@<TRIPOS>MOLECULE
jak2-ligand
56   59    1
SMALL
USER_CHARGES


@<TRIPOS>ATOM
      1 C1        109.3879   64.1844    5.9576 C.3       1 <0>         0.0222 
      2 C2        114.3859   69.7536   17.1240 C.3       1 <0>         0.1100 
      3 C3        111.3562   65.6293   14.6503 C.3       1 <0>         0.1100 
      4 C4        112.6702   66.6283   17.1329 C.3       1 <0>         0.1100 
      5 C5        118.7105   66.4751    7.7059 C.ar      1 <0>        -0.1399 
      6 C6        117.4317   65.9016    7.6113 C.ar      1 <0>        -0.1399 
      7 C7        119.0821   67.1648    8.8721 C.ar      1 <0>        -0.3245 
      8 C8        114.7208   64.4321    9.4537 C.ar      1 <0>        -0.1150 
      9 C9        114.3248   65.7793    7.4666 C.ar      1 <0>        -0.1150 
     10 C10       113.4641   63.8178    9.2979 C.ar      1 <0>        -0.1150 
     11 C11       113.0648   65.1709    7.3027 C.ar      1 <0>        -0.1150 
     12 C12       115.7481   68.0175   14.3822 C.ar      1 <0>        -0.1150 
     13 C13       114.0793   67.0570   12.9080 C.ar      1 <0>        -0.1150 
     14 C14       117.6871   68.0386   12.0878 C.ar      1 <0>         0.1442 
     15 C15       115.1723   65.4070    8.5341 C.ar      1 <0>         0.0000 
     16 C16       112.6426   64.1871    8.2164 C.ar      1 <0>         0.1567 
     17 C17       116.5119   66.0098    8.6751 C.ar      1 <0>        -0.1387 
     18 C18       118.1901   67.2838    9.9561 C.ar      1 <0>         0.4087 
     19 C19       115.4029   67.5085   13.1081 C.ar      1 <0>         0.0000 
     20 C20       114.8025   68.0949   15.4316 C.ar      1 <0>         0.0850 
     21 C21       113.1141   67.1129   13.9434 C.ar      1 <0>         0.0850 
     22 C22       116.4046   67.4517   12.0178 C.ar      1 <0>         0.2310 
     23 C23       116.8929   66.6938    9.8607 C.ar      1 <0>         0.4086 
     24 C24       113.4869   67.6438   15.1984 C.ar      1 <0>         0.0850 
     25 N1        118.5704   67.9521   11.0707 N.ar      1 <0>        -0.5226 
     26 N2        116.0337   66.7841   10.9040 N.ar      1 <0>        -0.5225 
     27 N3        110.7290   63.7237    6.3141 N.pl3     1 <0>        -0.6527 
     28 O1        110.0506   64.0745    8.7741 O.2       1 <0>        -0.4680 
     29 O2        111.2539   61.9254    8.0873 O.2       1 <0>        -0.4680 
     30 O3        115.0865   68.5981   16.6851 O.3       1 <0>        -0.2850 
     31 O4        111.8136   66.6729   13.8032 O.3       1 <0>        -0.2850 
     32 O5        112.5734   67.7084   16.2189 O.3       1 <0>        -0.2850 
     33 S1        111.0657   63.3797    7.9687 S.o2      1 <0>         0.8327 
     34 H1        109.0558   64.9461    6.6627 H         1 <0>         0.0733 
     35 H2        108.6822   63.3536    5.9834 H         1 <0>         0.0733 
     36 H3        109.3871   64.6152    4.9561 H         1 <0>         0.0733 
     37 H4        114.7052   70.0057   18.1351 H         1 <0>         0.0300 
     38 H5        114.5977   70.6141   16.4879 H         1 <0>         0.0300 
     39 H6        113.3090   69.5825   17.1531 H         1 <0>         0.0300 
     40 H7        110.3152   65.4073   14.4159 H         1 <0>         0.0300 
     41 H8        111.9297   64.7136   14.5001 H         1 <0>         0.0300 
     42 H9        111.4024   65.9186   15.7010 H         1 <0>         0.0300 
     43 H10       111.8854   66.7156   17.8841 H         1 <0>         0.0300 
     44 H11       112.5423   65.6716   16.6243 H         1 <0>         0.0300 
     45 H12       113.6296   66.6216   17.6513 H         1 <0>         0.0300 
     46 H13       119.4049   66.3896    6.8824 H         1 <0>         0.1615 
     47 H14       117.1501   65.3794    6.7079 H         1 <0>         0.1615 
     48 H15       120.0652   67.6075    8.9386 H         1 <0>         0.1858 
     49 H16       115.3538   64.1374   10.2782 H         1 <0>         0.1150 
     50 H17       114.6510   66.5229    6.7540 H         1 <0>         0.1150 
     51 H18       113.1434   63.0623    9.9996 H         1 <0>         0.1150 
     52 H19       112.4297   65.4473    6.4738 H         1 <0>         0.1150 
     53 H20       116.7608   68.3528   14.5434 H         1 <0>         0.1150 
     54 H21       113.8104   66.6730   11.9371 H         1 <0>         0.1150 
     55 H22       118.0145   68.5894   12.9567 H         1 <0>         0.0868 
     56 H23       111.0340   62.9524    5.7212 H         1 <0>         0.3572 
@<TRIPOS>BOND
     1    1   27 1    
     2    1   34 1    
     3    1   35 1    
     4    1   36 1    
     5    2   30 1    
     6    2   37 1    
     7    2   38 1    
     8    2   39 1    
     9    3   31 1    
    10    3   40 1    
    11    3   41 1    
    12    3   42 1    
    13    4   32 1    
    14    4   43 1    
    15    4   44 1    
    16    4   45 1    
    17    5    6 ar   
    18    5    7 ar   
    19    5   46 1    
    20    6   17 ar   
    21    6   47 1    
    22    7   18 ar   
    23    7   48 1    
    24    8   10 ar   
    25    8   15 ar   
    26    8   49 1    
    27    9   11 ar   
    28    9   15 ar   
    29    9   50 1    
    30   10   16 ar   
    31   10   51 1    
    32   11   16 ar   
    33   11   52 1    
    34   12   19 ar   
    35   12   20 ar   
    36   12   53 1    
    37   13   19 ar   
    38   13   21 ar   
    39   13   54 1    
    40   14   22 ar   
    41   14   25 ar   
    42   14   55 1    
    43   15   17 1    
    44   16   33 1    
    45   17   23 ar   
    46   18   23 ar   
    47   18   25 ar   
    48   19   22 1    
    49   20   24 ar   
    50   20   30 1    
    51   21   24 ar   
    52   21   31 1    
    53   22   26 ar   
    54   23   26 ar   
    55   24   32 1    
    56   27   33 1    
    57   27   56 1    
    58   28   33 2    
    59   29   33 2    
@<TRIPOS>SUBSTRUCTURE
     1 <0>         1 GROUP             0       ****    0 ROOT    
@<TRIPOS>MOLECULE
jak2-ligand
56   59    1
SMALL
USER_CHARGES


@<TRIPOS>ATOM
      1 C1        110.3164   62.5911    5.5114 C.3       1 <0>         0.0222 
      2 C2        115.0278   69.1794   16.8573 C.3       1 <0>         0.1100 
      3 C3        110.9996   66.4526   12.3886 C.3       1 <0>         0.1100 
      4 C4        111.7663   68.6726   15.9675 C.3       1 <0>         0.1100 
      5 C5        117.7889   65.6340    6.8749 C.ar      1 <0>        -0.1399 
      6 C6        116.4367   65.2590    6.8959 C.ar      1 <0>        -0.1399 
      7 C7        118.3813   66.1764    8.0223 C.ar      1 <0>        -0.3245 
      8 C8        113.6731   64.1274    8.8936 C.ar      1 <0>        -0.1150 
      9 C9        113.3866   65.7411    7.0910 C.ar      1 <0>        -0.1150 
     10 C10       112.3011   63.8202    8.8428 C.ar      1 <0>        -0.1150 
     11 C11       112.0131   65.4435    7.0359 C.ar      1 <0>        -0.1150 
     12 C12       115.7384   67.5652   13.7792 C.ar      1 <0>        -0.1150 
     13 C13       113.7926   66.9596   12.4840 C.ar      1 <0>        -0.1150 
     14 C14       117.4133   67.3073   11.2943 C.ar      1 <0>         0.1442 
     15 C15       114.2287   65.0873    8.0176 C.ar      1 <0>         0.0000 
     16 C16       111.4775   64.4794    7.9106 C.ar      1 <0>         0.1567 
     17 C17       115.6610   65.4220    8.0644 C.ar      1 <0>        -0.1387 
     18 C18       117.6283   66.3650    9.1946 C.ar      1 <0>         0.4087 
     19 C19       115.1932   67.1484   12.5465 C.ar      1 <0>         0.0000 
     20 C20       114.9399   67.7869   14.9154 C.ar      1 <0>         0.0850 
     21 C21       112.9602   67.1472   13.6157 C.ar      1 <0>         0.0850 
     22 C22       116.0659   66.8901   11.3739 C.ar      1 <0>         0.2310 
     23 C23       116.2573   65.9676    9.2311 C.ar      1 <0>         0.4086 
     24 C24       113.5392   67.5649   14.8417 C.ar      1 <0>         0.0850 
     25 N1        118.1913   67.0177   10.2357 N.ar      1 <0>        -0.5226 
     26 N2        115.5204   66.1976   10.3478 N.ar      1 <0>        -0.5225 
     27 N3        109.5839   63.7156    6.0914 N.pl3     1 <0>        -0.6527 
     28 O1        108.9355   65.2096    8.0898 O.2       1 <0>        -0.4680 
     29 O2        109.5373   62.7651    8.4995 O.2       1 <0>        -0.4680 
     30 O3        115.6132   68.1631   16.0566 O.3       1 <0>        -0.2850 
     31 O4        111.6020   66.9047   13.5935 O.3       1 <0>        -0.2850 
     32 O5        112.7736   67.6692   15.9800 O.3       1 <0>        -0.2850 
     33 S1        109.7538   64.0291    7.7793 S.o2      1 <0>         0.8327 
     34 H1        110.1456   61.6857    6.0943 H         1 <0>         0.0733 
     35 H2        111.3869   62.8009    5.5016 H         1 <0>         0.0733 
     36 H3        109.9911   62.4213    4.4849 H         1 <0>         0.0733 
     37 H4        115.8086   69.6714   17.4357 H         1 <0>         0.0300 
     38 H5        114.5369   69.9448   16.2547 H         1 <0>         0.0300 
     39 H6        114.3155   68.7646   17.5701 H         1 <0>         0.0300 
     40 H7        109.9298   66.3200   12.5503 H         1 <0>         0.0300 
     41 H8        111.1209   67.1768   11.5830 H         1 <0>         0.0300 
     42 H9        111.4068   65.4917   12.0731 H         1 <0>         0.0300 
     43 H10       111.3568   68.7685   16.9728 H         1 <0>         0.0300 
     44 H11       112.1768   69.6440   15.6941 H         1 <0>         0.0300 
     45 H12       110.9346   68.4407   15.3039 H         1 <0>         0.0300 
     46 H13       118.3562   65.5625    5.9577 H         1 <0>         0.1615 
     47 H14       115.9836   64.8724    5.9925 H         1 <0>         0.1615 
     48 H15       119.4102   66.5047    7.9869 H         1 <0>         0.1858 
     49 H16       114.3046   63.6207    9.6088 H         1 <0>         0.1150 
     50 H17       113.7961   66.4804    6.4173 H         1 <0>         0.1150 
     51 H18       111.8907   63.0777    9.5107 H         1 <0>         0.1150 
     52 H19       111.3798   65.9510    6.3228 H         1 <0>         0.1150 
     53 H20       116.8003   67.7163   13.8875 H         1 <0>         0.1150 
     54 H21       113.3642   66.6363   11.5481 H         1 <0>         0.1150 
     55 H22       117.8943   67.8653   12.0825 H         1 <0>         0.0868 
     56 H23       109.7161   64.5658    5.5395 H         1 <0>         0.3572 
@<TRIPOS>BOND
     1    1   27 1    
     2    1   34 1    
     3    1   35 1    
     4    1   36 1    
     5    2   30 1    
     6    2   37 1    
     7    2   38 1    
     8    2   39 1    
     9    3   31 1    
    10    3   40 1    
    11    3   41 1    
    12    3   42 1    
    13    4   32 1    
    14    4   43 1    
    15    4   44 1    
    16    4   45 1    
    17    5    6 ar   
    18    5    7 ar   
    19    5   46 1    
    20    6   17 ar   
    21    6   47 1    
    22    7   18 ar   
    23    7   48 1    
    24    8   10 ar   
    25    8   15 ar   
    26    8   49 1    
    27    9   11 ar   
    28    9   15 ar   
    29    9   50 1    
    30   10   16 ar   
    31   10   51 1    
    32   11   16 ar   
    33   11   52 1    
    34   12   19 ar   
    35   12   20 ar   
    36   12   53 1    
    37   13   19 ar   
    38   13   21 ar   
    39   13   54 1    
    40   14   22 ar   
    41   14   25 ar   
    42   14   55 1    
    43   15   17 1    
    44   16   33 1    
    45   17   23 ar   
    46   18   23 ar   
    47   18   25 ar   
    48   19   22 1    
    49   20   24 ar   
    50   20   30 1    
    51   21   24 ar   
    52   21   31 1    
    53   22   26 ar   
    54   23   26 ar   
    55   24   32 1    
    56   27   33 1    
    57   27   56 1    
    58   28   33 2    
    59   29   33 2    
@<TRIPOS>SUBSTRUCTURE
     1 <0>         1 GROUP             0       ****    0 ROOT    
@<TRIPOS>MOLECULE
jak2-ligand
56   59    1
SMALL
USER_CHARGES


@<TRIPOS>ATOM
      1 C1        109.7073   63.0766    5.3529 C.3       1 <0>         0.0222 
      2 C2        115.3023   67.3321   17.6765 C.3       1 <0>         0.1100 
      3 C3        111.3450   66.4474   12.4819 C.3       1 <0>         0.1100 
      4 C4        111.5923   68.5942   16.1305 C.3       1 <0>         0.1100 
      5 C5        118.5929   66.4955    7.6009 C.ar      1 <0>        -0.1399 
      6 C6        117.3271   65.8971    7.5463 C.ar      1 <0>        -0.1399 
      7 C7        118.9918   67.1629    8.7698 C.ar      1 <0>        -0.3245 
      8 C8        114.5290   64.4895    9.3802 C.ar      1 <0>        -0.1150 
      9 C9        114.2964   65.8343    7.3670 C.ar      1 <0>        -0.1150 
     10 C10       113.2369   63.9642    9.1854 C.ar      1 <0>        -0.1150 
     11 C11       113.0043   65.3155    7.1618 C.ar      1 <0>        -0.1150 
     12 C12       115.7913   67.9646   14.3794 C.ar      1 <0>        -0.1150 
     13 C13       114.0704   67.1386   12.8967 C.ar      1 <0>        -0.1150 
     14 C14       117.7153   67.9704   12.0381 C.ar      1 <0>         0.1442 
     15 C15       115.0768   65.4254    8.4730 C.ar      1 <0>         0.0000 
     16 C16       112.4824   64.3765    8.0707 C.ar      1 <0>         0.1567 
     17 C17       116.4427   65.9650    8.6455 C.ar      1 <0>        -0.1387 
     18 C18       118.1752   67.1772    9.9143 C.ar      1 <0>         0.4087 
     19 C19       115.4206   67.5201   13.0916 C.ar      1 <0>         0.0000 
     20 C20       114.8818   67.9650   15.4512 C.ar      1 <0>         0.0850 
     21 C21       113.1180   67.1748   13.9454 C.ar      1 <0>         0.0850 
     22 C22       116.4109   67.4291   11.9886 C.ar      1 <0>         0.2310 
     23 C23       116.8712   66.5966    9.8465 C.ar      1 <0>         0.4086 
     24 C24       113.5329   67.5978   15.2322 C.ar      1 <0>         0.0850 
     25 N1        118.5881   67.8455   11.0170 N.ar      1 <0>        -0.5226 
     26 N2        116.0239   66.7349   10.8942 N.ar      1 <0>        -0.5225 
     27 N3        110.9509   63.2841    6.0870 N.pl3     1 <0>        -0.6527 
     28 O1        109.8549   64.7040    7.9425 O.2       1 <0>        -0.4680 
     29 O2        110.7682   62.3826    8.4938 O.2       1 <0>        -0.4680 
     30 O3        115.3464   68.3472   16.6840 O.3       1 <0>        -0.2850 
     31 O4        111.8004   66.7985   13.7822 O.3       1 <0>        -0.2850 
     32 O5        112.6499   67.6599   16.2838 O.3       1 <0>        -0.2850 
     33 S1        110.8742   63.6575    7.7656 S.o2      1 <0>         0.8327 
     34 H1        109.0869   63.9709    5.4075 H         1 <0>         0.0733 
     35 H2        109.1578   62.2352    5.7777 H         1 <0>         0.0733 
     36 H3        109.9247   62.8710    4.3048 H         1 <0>         0.0733 
     37 H4        115.8942   67.6430   18.5376 H         1 <0>         0.0300 
     38 H5        114.2890   67.1379   18.0311 H         1 <0>         0.0300 
     39 H6        115.7263   66.3951   17.3066 H         1 <0>         0.0300 
     40 H7        110.2813   66.2142   12.5261 H         1 <0>         0.0300 
     41 H8        111.4708   67.2701   11.7780 H         1 <0>         0.0300 
     42 H9        111.8601   65.5649   12.1034 H         1 <0>         0.0300 
     43 H10       111.1770   68.8250   17.1109 H         1 <0>         0.0300 
     44 H11       111.9390   69.5309   15.6959 H         1 <0>         0.0300 
     45 H12       110.7800   68.1997   15.5208 H         1 <0>         0.0300 
     46 H13       119.2423   66.4694    6.7372 H         1 <0>         0.1615 
     47 H14       117.0164   65.4179    6.6280 H         1 <0>         0.1615 
     48 H15       119.9591   67.6380    8.7970 H         1 <0>         0.1858 
     49 H16       115.1096   64.1610   10.2286 H         1 <0>         0.1150 
     50 H17       114.6939   66.5489    6.6604 H         1 <0>         0.1150 
     51 H18       112.8367   63.2411    9.8816 H         1 <0>         0.1150 
     52 H19       112.4221   65.6303    6.3066 H         1 <0>         0.1150 
     53 H20       116.8016   68.2794   14.5848 H         1 <0>         0.1150 
     54 H21       113.7696   66.8037   11.9164 H         1 <0>         0.1150 
     55 H22       118.0723   68.5299   12.8889 H         1 <0>         0.0868 
     56 H23       111.6291   62.5455    5.9026 H         1 <0>         0.3572 
@<TRIPOS>BOND
     1    1   27 1    
     2    1   34 1    
     3    1   35 1    
     4    1   36 1    
     5    2   30 1    
     6    2   37 1    
     7    2   38 1    
     8    2   39 1    
     9    3   31 1    
    10    3   40 1    
    11    3   41 1    
    12    3   42 1    
    13    4   32 1    
    14    4   43 1    
    15    4   44 1    
    16    4   45 1    
    17    5    6 ar   
    18    5    7 ar   
    19    5   46 1    
    20    6   17 ar   
    21    6   47 1    
    22    7   18 ar   
    23    7   48 1    
    24    8   10 ar   
    25    8   15 ar   
    26    8   49 1    
    27    9   11 ar   
    28    9   15 ar   
    29    9   50 1    
    30   10   16 ar   
    31   10   51 1    
    32   11   16 ar   
    33   11   52 1    
    34   12   19 ar   
    35   12   20 ar   
    36   12   53 1    
    37   13   19 ar   
    38   13   21 ar   
    39   13   54 1    
    40   14   22 ar   
    41   14   25 ar   
    42   14   55 1    
    43   15   17 1    
    44   16   33 1    
    45   17   23 ar   
    46   18   23 ar   
    47   18   25 ar   
    48   19   22 1    
    49   20   24 ar   
    50   20   30 1    
    51   21   24 ar   
    52   21   31 1    
    53   22   26 ar   
    54   23   26 ar   
    55   24   32 1    
    56   27   33 1    
    57   27   56 1    
    58   28   33 2    
    59   29   33 2    
@<TRIPOS>SUBSTRUCTURE
     1 <0>         1 GROUP             0       ****    0 ROOT    
