@<TRIPOS>MOLECULE
kif11-ligand
64   67    1
SMALL
USER_CHARGES


@<TRIPOS>ATOM
      1 C1         14.0717   21.8576  111.2904 C.3       1 <0>         0.0900 
      2 C2         15.2177   16.4198  107.5940 C.3       1 <0>        -0.1303 
      3 C3         18.7182   13.3574  113.6668 C.ar      1 <0>        -0.1150 
      4 C4         19.2975   14.4469  112.9913 C.ar      1 <0>        -0.1150 
      5 C5         17.8817   12.4714  112.9715 C.ar      1 <0>        -0.1150 
      6 C6         19.0508   14.6402  111.6182 C.ar      1 <0>        -0.1150 
      7 C7         17.6425   12.6580  111.5999 C.ar      1 <0>        -0.1150 
      8 C8         22.9546   16.0883  105.6069 C.ar      1 <0>        -0.1150 
      9 C9         21.8307   16.9133  105.6055 C.ar      1 <0>        -0.1150 
     10 C10        21.6363   14.2740  106.5762 C.ar      1 <0>        -0.1150 
     11 C11        14.4977   18.0933  110.7776 C.3       1 <0>        -0.1200 
     12 C12        13.7879   19.4256  111.0690 C.3       1 <0>         0.1500 
     13 C13        19.3401   13.8342  108.6362 C.3       1 <0>        -0.1200 
     14 C14        15.3618   20.6242  109.5858 C.3       1 <0>         0.1500 
     15 C15        18.3576   15.8714  107.9576 C.3       1 <0>        -0.0703 
     16 C16        16.9377   12.9438  108.8308 C.3       1 <0>         0.1450 
     17 C17        18.2265   13.7437  110.8949 C.ar      1 <0>        -0.1150 
     18 C18        22.8217   14.7409  105.9589 C.ar      1 <0>         0.2200 
     19 C19        20.6146   16.4039  106.0713 C.ar      1 <0>         0.2200 
     20 C20        20.5223   15.1410  106.6973 C.ar      1 <0>        -0.1150 
     21 C21        15.1241   18.1066  109.3625 C.3       1 <0>        -0.0103 
     22 C22        19.2151   14.7159  107.3907 C.3       1 <0>         0.0550 
     23 C23        16.0832   19.3015  109.2485 C.3       1 <0>         0.1200 
     24 C24        16.5207   16.0147  109.6572 C.2       1 <0>         0.8613 
     25 C25        17.9822   13.9643  109.3812 C.3       1 <0>         0.1647 
     26 N1         14.7182   20.5762  110.9261 N.4       1 <0>        -0.1000 
     27 N2         17.5005   15.3174  109.0159 N.am      1 <0>        -0.2219 
     28 N3         15.7627   16.8500  108.8909 N.am      1 <0>        -0.2219 
     29 O1         16.5617   13.1322  107.4837 O.3       1 <0>        -0.6830 
     30 O2         16.3181   15.8857  110.8632 O.2       1 <0>        -0.6163 
     31 F1         23.8555   13.9322  105.6668 F         1 <0>        -0.2200 
     32 F2         19.5182   17.1322  105.8500 F         1 <0>        -0.2200 
     33 F3         17.1182   19.1261  110.0668 F         1 <0>        -0.2200 
     34 H1         13.2089   22.0558  110.6532 H         1 <0>         0.0600 
     35 H2         13.7324   21.8356  112.3265 H         1 <0>         0.0600 
     36 H3         14.7580   22.6970  111.1896 H         1 <0>         0.0600 
     37 H4         15.6182   15.4764  107.2299 H         1 <0>         0.0600 
     38 H5         14.1371   16.2871  107.6608 H         1 <0>         0.0600 
     39 H6         15.4196   17.1726  106.8309 H         1 <0>         0.0600 
     40 H7         18.9138   13.1908  114.7164 H         1 <0>         0.1150 
     41 H8         19.9393   15.1320  113.5252 H         1 <0>         0.1150 
     42 H9         17.4244   11.6396  113.4860 H         1 <0>         0.1150 
     43 H10        19.5014   15.4848  111.1175 H         1 <0>         0.1150 
     44 H11        17.0049   11.9319  111.1209 H         1 <0>         0.1150 
     45 H12        23.9060   16.4613  105.2669 H         1 <0>         0.1150 
     46 H13        21.8808   17.9117  105.2005 H         1 <0>         0.1150 
     47 H14        21.5748   13.2506  106.9162 H         1 <0>         0.1150 
     48 H15        15.2561   17.9523  111.5482 H         1 <0>         0.0600 
     49 H16        13.7916   17.2670  110.8678 H         1 <0>         0.0600 
     50 H17        12.9387   19.5531  110.3955 H         1 <0>         0.0600 
     51 H18        13.3861   19.4070  112.0830 H         1 <0>         0.0600 
     52 H19        19.6283   12.8006  108.4668 H         1 <0>         0.0600 
     53 H20        20.1421   14.2597  109.2398 H         1 <0>         0.0600 
     54 H21        14.6024   20.8318  108.8301 H         1 <0>         0.0600 
     55 H22        16.0705   21.4528  109.5483 H         1 <0>         0.0600 
     56 H23        17.7838   16.3482  107.1668 H         1 <0>         0.0600 
     57 H24        18.9909   16.6328  108.4167 H         1 <0>         0.0600 
     58 H25        17.3229   11.9322  108.9115 H         1 <0>         0.0600 
     59 H26        16.0148   12.9849  109.4108 H         1 <0>         0.0600 
     60 H27        14.2950   18.3228  108.6856 H         1 <0>         0.0600 
     61 H28        18.6429   14.1853  106.6303 H         1 <0>         0.0600 
     62 H29        16.4987   19.3543  108.2423 H         1 <0>         0.1000 
     63 H30        15.4683   20.4365  111.5912 H         1 <0>         0.2900 
     64 H31        16.0984   12.3514  107.2058 H         1 <0>         0.4180 
@<TRIPOS>BOND
     1    1   26 1    
     2    1   34 1    
     3    1   35 1    
     4    1   36 1    
     5    2   28 1    
     6    2   37 1    
     7    2   38 1    
     8    2   39 1    
     9    3    4 ar   
    10    3    5 ar   
    11    3   40 1    
    12    4    6 ar   
    13    4   41 1    
    14    5    7 ar   
    15    5   42 1    
    16    6   17 ar   
    17    6   43 1    
    18    7   17 ar   
    19    7   44 1    
    20    8    9 ar   
    21    8   18 ar   
    22    8   45 1    
    23    9   19 ar   
    24    9   46 1    
    25   10   18 ar   
    26   10   20 ar   
    27   10   47 1    
    28   11   12 1    
    29   11   21 1    
    30   11   48 1    
    31   11   49 1    
    32   12   26 1    
    33   12   50 1    
    34   12   51 1    
    35   13   22 1    
    36   13   25 1    
    37   13   52 1    
    38   13   53 1    
    39   14   23 1    
    40   14   26 1    
    41   14   54 1    
    42   14   55 1    
    43   15   22 1    
    44   15   27 1    
    45   15   56 1    
    46   15   57 1    
    47   16   25 1    
    48   16   29 1    
    49   16   58 1    
    50   16   59 1    
    51   17   25 1    
    52   18   31 1    
    53   19   20 ar   
    54   19   32 1    
    55   20   22 1    
    56   21   23 1    
    57   21   28 1    
    58   21   60 1    
    59   22   61 1    
    60   23   33 1    
    61   23   62 1    
    62   24   27 am   BACKBONE|DICT|INTERRES
    63   24   28 am   BACKBONE|DICT|INTERRES
    64   24   30 2    
    65   25   27 1    
    66   26   63 1    
    67   29   64 1    
@<TRIPOS>SUBSTRUCTURE
     1 <0>         1 GROUP             0       ****    0 ROOT    
@<TRIPOS>MOLECULE
kif11-ligand
64   67    1
SMALL
USER_CHARGES


@<TRIPOS>ATOM
      1 C1         14.0039   21.8970  111.3505 C.3       1 <0>         0.0900 
      2 C2         15.2910   16.4755  107.6083 C.3       1 <0>        -0.1303 
      3 C3         18.7085   13.2991  113.7984 C.ar      1 <0>        -0.1150 
      4 C4         17.8295   12.4273  113.1385 C.ar      1 <0>        -0.1150 
      5 C5         19.2522   14.3973  113.1100 C.ar      1 <0>        -0.1150 
      6 C6         17.5184   12.6340  111.7855 C.ar      1 <0>        -0.1150 
      7 C7         18.9262   14.6161  111.7579 C.ar      1 <0>        -0.1150 
      8 C8         22.7413   15.5094  105.4338 C.ar      1 <0>        -0.1150 
      9 C9         22.6493   14.3311  106.1737 C.ar      1 <0>        -0.1150 
     10 C10        20.5304   16.1662  106.1886 C.ar      1 <0>        -0.1150 
     11 C11        14.3303   18.1354  110.7962 C.3       1 <0>        -0.1200 
     12 C12        13.6416   19.4798  111.0773 C.3       1 <0>         0.1500 
     13 C13        19.0800   13.6946  108.7937 C.3       1 <0>        -0.1200 
     14 C14        15.2279   20.6500  109.6071 C.3       1 <0>         0.1500 
     15 C15        18.3930   15.9004  108.2695 C.3       1 <0>        -0.0703 
     16 C16        16.6526   12.9826  109.0698 C.3       1 <0>         0.1450 
     17 C17        18.0588   13.7336  111.0689 C.ar      1 <0>        -0.1150 
     18 C18        21.6893   16.4309  105.4410 C.ar      1 <0>         0.2200 
     19 C19        21.5142   14.0714  106.9595 C.ar      1 <0>         0.2200 
     20 C20        20.4209   14.9808  106.9525 C.ar      1 <0>        -0.1150 
     21 C21        14.9870   18.1245  109.3908 C.3       1 <0>        -0.0103 
     22 C22        19.0866   14.6897  107.6416 C.3       1 <0>         0.0550 
     23 C23        15.9415   19.3234  109.2640 C.3       1 <0>         0.1200 
     24 C24        16.4513   16.1005  109.7865 C.2       1 <0>         0.8613 
     25 C25        17.7671   13.9518  109.5652 C.3       1 <0>         0.1647 
     26 N1         14.6046   20.6028  110.9541 N.4       1 <0>        -0.1000 
     27 N2         17.3937   15.3383  109.1833 N.am      1 <0>        -0.2219 
     28 N3         15.6707   16.8720  108.9747 N.am      1 <0>        -0.2219 
     29 O1         16.2963   13.1319  107.7121 O.3       1 <0>        -0.6830 
     30 O2         16.3176   16.0844  111.0039 O.2       1 <0>        -0.6163 
     31 F1         21.7654   17.5323  104.6692 F         1 <0>        -0.2200 
     32 F2         21.5180   12.9401  107.7004 F         1 <0>        -0.2200 
     33 F3         16.9878   19.1303  110.0650 F         1 <0>        -0.2200 
     34 H1         13.1421   22.1382  110.7272 H         1 <0>         0.0600 
     35 H2         13.6741   21.8643  112.3894 H         1 <0>         0.0600 
     36 H3         14.7191   22.7139  111.2616 H         1 <0>         0.0600 
     37 H4         15.8082   15.5993  107.2247 H         1 <0>         0.0600 
     38 H5         14.2253   16.2467  107.5692 H         1 <0>         0.0600 
     39 H6         15.4864   17.2887  106.9082 H         1 <0>         0.0600 
     40 H7         18.9574   13.1292  114.8357 H         1 <0>         0.1150 
     41 H8         17.3932   11.5912  113.6626 H         1 <0>         0.1150 
     42 H9         19.9268   15.0698  113.6188 H         1 <0>         0.1150 
     43 H10        16.8535   11.9160  111.3332 H         1 <0>         0.1150 
     44 H11        19.3579   15.4613  111.2428 H         1 <0>         0.1150 
     45 H12        23.6311   15.6882  104.8670 H         1 <0>         0.1150 
     46 H13        23.4635   13.6276  106.1206 H         1 <0>         0.1150 
     47 H14        19.7172   16.8736  106.1383 H         1 <0>         0.1150 
     48 H15        15.0627   17.9980  111.5897 H         1 <0>         0.0600 
     49 H16        13.6102   17.3209  110.8782 H         1 <0>         0.0600 
     50 H17        12.8086   19.6303  110.3904 H         1 <0>         0.0600 
     51 H18        13.2241   19.4667  112.0842 H         1 <0>         0.0600 
     52 H19        19.1711   12.6656  108.4709 H         1 <0>         0.0600 
     53 H20        19.9452   13.9045  109.4235 H         1 <0>         0.0600 
     54 H21        14.4582   20.8573  108.8622 H         1 <0>         0.0600 
     55 H22        15.9288   21.4817  109.5598 H         1 <0>         0.0600 
     56 H23        17.9641   16.5583  107.5149 H         1 <0>         0.0600 
     57 H24        19.1025   16.4890  108.8541 H         1 <0>         0.0600 
     58 H25        16.9827   11.9498  109.1857 H         1 <0>         0.0600 
     59 H26        15.7418   13.0994  109.6603 H         1 <0>         0.0600 
     60 H27        14.1707   18.3027  108.6888 H         1 <0>         0.0600 
     61 H28        18.4377   14.2978  106.8565 H         1 <0>         0.0600 
     62 H29        16.3446   19.3772  108.2525 H         1 <0>         0.1000 
     63 H30        15.3575   20.4263  111.6068 H         1 <0>         0.2900 
     64 H31        15.9269   12.2997  107.4307 H         1 <0>         0.4180 
@<TRIPOS>BOND
     1    1   26 1    
     2    1   34 1    
     3    1   35 1    
     4    1   36 1    
     5    2   28 1    
     6    2   37 1    
     7    2   38 1    
     8    2   39 1    
     9    3    4 ar   
    10    3    5 ar   
    11    3   40 1    
    12    4    6 ar   
    13    4   41 1    
    14    5    7 ar   
    15    5   42 1    
    16    6   17 ar   
    17    6   43 1    
    18    7   17 ar   
    19    7   44 1    
    20    8    9 ar   
    21    8   18 ar   
    22    8   45 1    
    23    9   19 ar   
    24    9   46 1    
    25   10   18 ar   
    26   10   20 ar   
    27   10   47 1    
    28   11   12 1    
    29   11   21 1    
    30   11   48 1    
    31   11   49 1    
    32   12   26 1    
    33   12   50 1    
    34   12   51 1    
    35   13   22 1    
    36   13   25 1    
    37   13   52 1    
    38   13   53 1    
    39   14   23 1    
    40   14   26 1    
    41   14   54 1    
    42   14   55 1    
    43   15   22 1    
    44   15   27 1    
    45   15   56 1    
    46   15   57 1    
    47   16   25 1    
    48   16   29 1    
    49   16   58 1    
    50   16   59 1    
    51   17   25 1    
    52   18   31 1    
    53   19   20 ar   
    54   19   32 1    
    55   20   22 1    
    56   21   23 1    
    57   21   28 1    
    58   21   60 1    
    59   22   61 1    
    60   23   33 1    
    61   23   62 1    
    62   24   27 am   BACKBONE|DICT|INTERRES
    63   24   28 am   BACKBONE|DICT|INTERRES
    64   24   30 2    
    65   25   27 1    
    66   26   63 1    
    67   29   64 1    
@<TRIPOS>SUBSTRUCTURE
     1 <0>         1 GROUP             0       ****    0 ROOT    
@<TRIPOS>MOLECULE
kif11-ligand
64   67    1
SMALL
USER_CHARGES


@<TRIPOS>ATOM
      1 C1         13.1024   21.4584  112.1795 C.3       1 <0>         0.0900 
      2 C2         15.2911   16.8217  107.7889 C.3       1 <0>        -0.1303 
      3 C3         18.4107   13.1477  113.8096 C.ar      1 <0>        -0.1150 
      4 C4         17.5183   12.3653  113.0599 C.ar      1 <0>        -0.1150 
      5 C5         19.0012   14.2832  113.2257 C.ar      1 <0>        -0.1150 
      6 C6         17.2389   12.6904  111.7208 C.ar      1 <0>        -0.1150 
      7 C7         18.6937   14.6310  111.8959 C.ar      1 <0>        -0.1150 
      8 C8         22.6471   15.4560  105.5889 C.ar      1 <0>        -0.1150 
      9 C9         22.4713   14.3321  106.4064 C.ar      1 <0>        -0.1150 
     10 C10        20.4664   16.2856  106.2815 C.ar      1 <0>        -0.1150 
     11 C11        13.7073   17.9899  110.6677 C.3       1 <0>        -0.1200 
     12 C12        12.9154   19.2405  111.0971 C.3       1 <0>         0.1500 
     13 C13        18.8153   13.8847  108.8584 C.3       1 <0>        -0.1200 
     14 C14        14.8064   20.7172  110.5621 C.3       1 <0>         0.1500 
     15 C15        18.3578   16.1804  108.4872 C.3       1 <0>        -0.0703 
     16 C16        16.3741   13.4061  108.9895 C.3       1 <0>         0.1450 
     17 C17        17.8057   13.8418  111.1229 C.ar      1 <0>        -0.1150 
     18 C18        21.6536   16.4483  105.5464 C.ar      1 <0>         0.2200 
     19 C19        21.3186   14.1932  107.1924 C.ar      1 <0>         0.2200 
     20 C20        20.2751   15.1481  107.1009 C.ar      1 <0>        -0.1150 
     21 C21        14.8088   18.3518  109.6410 C.3       1 <0>        -0.0103 
     22 C22        18.9196   14.9520  107.7766 C.3       1 <0>         0.0550 
     23 C23        15.6748   19.5115  110.1705 C.3       1 <0>         0.1200 
     24 C24        16.4157   16.4444  109.9904 C.2       1 <0>         0.8613 
     25 C25        17.5345   14.2091  109.6467 C.3       1 <0>         0.1647 
     26 N1         13.8241   20.3069  111.5941 N.4       1 <0>        -0.1000 
     27 N2         17.3150   15.6490  109.3655 N.am      1 <0>        -0.2219 
     28 N3         15.6152   17.1958  109.1762 N.am      1 <0>        -0.2219 
     29 O1         15.1199   13.6840  109.5782 O.3       1 <0>        -0.6830 
     30 O2         16.3141   16.4505  111.2154 O.2       1 <0>        -0.6163 
     31 F1         21.8167   17.5294  104.7520 F         1 <0>        -0.2200 
     32 F2         21.2566   13.1300  108.0232 F         1 <0>        -0.2200 
     33 F3         16.3188   19.1321  111.2668 F         1 <0>        -0.2200 
     34 H1         12.4963   21.9649  111.4281 H         1 <0>         0.0600 
     35 H2         12.4443   21.1340  112.9862 H         1 <0>         0.0600 
     36 H3         13.8063   22.1822  112.5952 H         1 <0>         0.0600 
     37 H4         15.6566   15.8406  107.4853 H         1 <0>         0.0600 
     38 H5         14.2100   16.7927  107.6438 H         1 <0>         0.0600 
     39 H6         15.7043   17.5567  107.0956 H         1 <0>         0.0600 
     40 H7         18.6298   12.8857  114.8353 H         1 <0>         0.1150 
     41 H8         17.0341   11.5195  113.5166 H         1 <0>         0.1150 
     42 H9         19.6874   14.8891  113.7988 H         1 <0>         0.1150 
     43 H10        16.5591   12.0468  111.1859 H         1 <0>         0.1150 
     44 H11        19.1544   15.5074  111.4641 H         1 <0>         0.1150 
     45 H12        23.5462   15.5527  105.0035 H         1 <0>         0.1150 
     46 H13        23.2279   13.5725  106.4552 H         1 <0>         0.1150 
     47 H14        19.6939   17.0346  106.1915 H         1 <0>         0.1150 
     48 H15        14.1334   17.5349  111.5613 H         1 <0>         0.0600 
     49 H16        13.0293   17.2489  110.2421 H         1 <0>         0.0600 
     50 H17        12.3283   19.6215  110.2590 H         1 <0>         0.0600 
     51 H18        12.2051   18.9687  111.8796 H         1 <0>         0.0600 
     52 H19        18.8257   12.8674  108.4673 H         1 <0>         0.0600 
     53 H20        19.6788   13.9879  109.5162 H         1 <0>         0.0600 
     54 H21        14.2904   21.1200  109.6899 H         1 <0>         0.0600 
     55 H22        15.4387   21.5184  110.9500 H         1 <0>         0.0600 
     56 H23        17.9965   16.9267  107.7813 H         1 <0>         0.0600 
     57 H24        19.1176   16.6544  109.1083 H         1 <0>         0.0600 
     58 H25        16.2974   13.6425  107.9279 H         1 <0>         0.0600 
     59 H26        16.5635   12.3337  109.0298 H         1 <0>         0.0600 
     60 H27        14.2877   18.7612  108.7736 H         1 <0>         0.0600 
     61 H28        18.2271   14.6807  106.9778 H         1 <0>         0.0600 
     62 H29        16.4291   19.8021  109.4374 H         1 <0>         0.1000 
     63 H30        14.3758   19.8929  112.3355 H         1 <0>         0.2900 
     64 H31        14.4537   13.2655  109.0529 H         1 <0>         0.4180 
@<TRIPOS>BOND
     1    1   26 1    
     2    1   34 1    
     3    1   35 1    
     4    1   36 1    
     5    2   28 1    
     6    2   37 1    
     7    2   38 1    
     8    2   39 1    
     9    3    4 ar   
    10    3    5 ar   
    11    3   40 1    
    12    4    6 ar   
    13    4   41 1    
    14    5    7 ar   
    15    5   42 1    
    16    6   17 ar   
    17    6   43 1    
    18    7   17 ar   
    19    7   44 1    
    20    8    9 ar   
    21    8   18 ar   
    22    8   45 1    
    23    9   19 ar   
    24    9   46 1    
    25   10   18 ar   
    26   10   20 ar   
    27   10   47 1    
    28   11   12 1    
    29   11   21 1    
    30   11   48 1    
    31   11   49 1    
    32   12   26 1    
    33   12   50 1    
    34   12   51 1    
    35   13   22 1    
    36   13   25 1    
    37   13   52 1    
    38   13   53 1    
    39   14   23 1    
    40   14   26 1    
    41   14   54 1    
    42   14   55 1    
    43   15   22 1    
    44   15   27 1    
    45   15   56 1    
    46   15   57 1    
    47   16   25 1    
    48   16   29 1    
    49   16   58 1    
    50   16   59 1    
    51   17   25 1    
    52   18   31 1    
    53   19   20 ar   
    54   19   32 1    
    55   20   22 1    
    56   21   23 1    
    57   21   28 1    
    58   21   60 1    
    59   22   61 1    
    60   23   33 1    
    61   23   62 1    
    62   24   27 am   BACKBONE|DICT|INTERRES
    63   24   28 am   BACKBONE|DICT|INTERRES
    64   24   30 2    
    65   25   27 1    
    66   26   63 1    
    67   29   64 1    
@<TRIPOS>SUBSTRUCTURE
     1 <0>         1 GROUP             0       ****    0 ROOT    
@<TRIPOS>MOLECULE
kif11-ligand
64   67    1
SMALL
USER_CHARGES


@<TRIPOS>ATOM
      1 C1         12.6717   21.4577  110.3910 C.3       1 <0>         0.0900 
      2 C2         17.9843   18.1315  109.9653 C.3       1 <0>        -0.1303 
      3 C3         18.6901   13.2658  113.7017 C.ar      1 <0>        -0.1150 
      4 C4         19.3111   14.3412  113.0447 C.ar      1 <0>        -0.1150 
      5 C5         17.8506   12.3999  112.9864 C.ar      1 <0>        -0.1150 
      6 C6         19.1056   14.5418  111.6671 C.ar      1 <0>        -0.1150 
      7 C7         17.6442   12.5983  111.6117 C.ar      1 <0>        -0.1150 
      8 C8         22.9545   16.0835  105.5995 C.ar      1 <0>        -0.1150 
      9 C9         21.8266   16.9044  105.6102 C.ar      1 <0>        -0.1150 
     10 C10        21.6505   14.2505  106.5533 C.ar      1 <0>        -0.1150 
     11 C11        15.2418   18.7784  111.2662 C.3       1 <0>        -0.1200 
     12 C12        13.9032   19.5315  111.3140 C.3       1 <0>         0.1500 
     13 C13        19.3755   13.7720  108.6413 C.3       1 <0>        -0.1200 
     14 C14        14.0121   20.0159  108.9021 C.3       1 <0>         0.1500 
     15 C15        18.4184   15.8279  107.9860 C.3       1 <0>        -0.0703 
     16 C16        16.9345   12.9671  108.8600 C.3       1 <0>         0.1450 
     17 C17        18.2705   13.6725  110.9246 C.ar      1 <0>        -0.1150 
     18 C18        22.8329   14.7325  105.9453 C.ar      1 <0>         0.2200 
     19 C19        20.6135   16.3834  106.0732 C.ar      1 <0>         0.2200 
     20 C20        20.5308   15.1070  106.6827 C.ar      1 <0>        -0.1150 
     21 C21        15.4892   18.1870  109.8581 C.3       1 <0>        -0.0103 
     22 C22        19.2377   14.6636  107.3952 C.3       1 <0>         0.0550 
     23 C23        15.3524   19.2717  108.7674 C.3       1 <0>         0.1200 
     24 C24        16.6881   16.0266  109.8002 C.2       1 <0>         0.8613 
     25 C25        18.0380   13.9309  109.4171 C.3       1 <0>         0.1647 
     26 N1         13.8592   20.5843  110.2673 N.4       1 <0>        -0.1000 
     27 N2         17.6750   15.3408  109.1559 N.am      1 <0>        -0.2219 
     28 N3         16.7321   17.3871  109.7420 N.am      1 <0>        -0.2219 
     29 O1         16.5770   13.1323  107.5067 O.3       1 <0>        -0.6830 
     30 O2         15.7879   15.4488  110.4112 O.2       1 <0>        -0.6163 
     31 F1         23.8765   13.9321  105.6669 F         1 <0>        -0.2200 
     32 F2         19.5194   17.1319  105.8949 F         1 <0>        -0.2200 
     33 F3         16.3175   20.1829  108.8670 F         1 <0>        -0.2200 
     34 H1         11.7495   20.8920  110.2489 H         1 <0>         0.0600 
     35 H2         12.6374   21.9248  111.3767 H         1 <0>         0.0600 
     36 H3         12.7004   22.2568  109.6493 H         1 <0>         0.0600 
     37 H4         18.7859   17.5046  110.3563 H         1 <0>         0.0600 
     38 H5         18.3186   18.5781  109.0297 H         1 <0>         0.0600 
     39 H6         17.8798   18.9459  110.6780 H         1 <0>         0.0600 
     40 H7         18.8518   13.1070  114.7579 H         1 <0>         0.1150 
     41 H8         19.9568   15.0072  113.5973 H         1 <0>         0.1150 
     42 H9         17.3577   11.5811  113.4889 H         1 <0>         0.1150 
     43 H10        19.5955   15.3720  111.1800 H         1 <0>         0.1150 
     44 H11        16.9908   11.8956  111.1201 H         1 <0>         0.1150 
     45 H12        23.9049   16.4666  105.2670 H         1 <0>         0.1150 
     46 H13        21.8722   17.9156  105.2313 H         1 <0>         0.1150 
     47 H14        21.5984   13.2255  106.8895 H         1 <0>         0.1150 
     48 H15        16.0156   19.4930  111.5505 H         1 <0>         0.0600 
     49 H16        15.2533   17.9848  112.0145 H         1 <0>         0.0600 
     50 H17        13.0702   18.8389  111.1809 H         1 <0>         0.0600 
     51 H18        13.7812   19.9870  112.2979 H         1 <0>         0.0600 
     52 H19        19.6375   12.7327  108.4670 H         1 <0>         0.0600 
     53 H20        20.1951   14.1802  109.2339 H         1 <0>         0.0600 
     54 H21        13.1814   19.3406  108.6894 H         1 <0>         0.0600 
     55 H22        13.9657   20.8159  108.1612 H         1 <0>         0.0600 
     56 H23        17.7456   16.2672  107.2482 H         1 <0>         0.0600 
     57 H24        19.1187   16.5911  108.3149 H         1 <0>         0.0600 
     58 H25        17.2622   11.9323  108.9491 H         1 <0>         0.0600 
     59 H26        16.0112   13.0486  109.4335 H         1 <0>         0.0600 
     60 H27        14.6500   17.5132  109.6691 H         1 <0>         0.0600 
     61 H28        18.6477   14.1477  106.6393 H         1 <0>         0.0600 
     62 H29        15.4453   18.8323  107.7732 H         1 <0>         0.1000 
     63 H30        14.6668   21.1758  110.4209 H         1 <0>         0.2900 
     64 H31        16.1849   12.3113  107.2265 H         1 <0>         0.4180 
@<TRIPOS>BOND
     1    1   26 1    
     2    1   34 1    
     3    1   35 1    
     4    1   36 1    
     5    2   28 1    
     6    2   37 1    
     7    2   38 1    
     8    2   39 1    
     9    3    4 ar   
    10    3    5 ar   
    11    3   40 1    
    12    4    6 ar   
    13    4   41 1    
    14    5    7 ar   
    15    5   42 1    
    16    6   17 ar   
    17    6   43 1    
    18    7   17 ar   
    19    7   44 1    
    20    8    9 ar   
    21    8   18 ar   
    22    8   45 1    
    23    9   19 ar   
    24    9   46 1    
    25   10   18 ar   
    26   10   20 ar   
    27   10   47 1    
    28   11   12 1    
    29   11   21 1    
    30   11   48 1    
    31   11   49 1    
    32   12   26 1    
    33   12   50 1    
    34   12   51 1    
    35   13   22 1    
    36   13   25 1    
    37   13   52 1    
    38   13   53 1    
    39   14   23 1    
    40   14   26 1    
    41   14   54 1    
    42   14   55 1    
    43   15   22 1    
    44   15   27 1    
    45   15   56 1    
    46   15   57 1    
    47   16   25 1    
    48   16   29 1    
    49   16   58 1    
    50   16   59 1    
    51   17   25 1    
    52   18   31 1    
    53   19   20 ar   
    54   19   32 1    
    55   20   22 1    
    56   21   23 1    
    57   21   28 1    
    58   21   60 1    
    59   22   61 1    
    60   23   33 1    
    61   23   62 1    
    62   24   27 am   BACKBONE|DICT|INTERRES
    63   24   28 am   BACKBONE|DICT|INTERRES
    64   24   30 2    
    65   25   27 1    
    66   26   63 1    
    67   29   64 1    
@<TRIPOS>SUBSTRUCTURE
     1 <0>         1 GROUP             0       ****    0 ROOT    
@<TRIPOS>MOLECULE
kif11-ligand
64   67    1
SMALL
USER_CHARGES


@<TRIPOS>ATOM
      1 C1         13.0472   21.5542  111.7161 C.3       1 <0>         0.0900 
      2 C2         15.3620   16.8066  107.6065 C.3       1 <0>        -0.1303 
      3 C3         18.6062   13.2943  113.7449 C.ar      1 <0>        -0.1150 
      4 C4         19.0958   14.4644  113.1374 C.ar      1 <0>        -0.1150 
      5 C5         17.7861   12.4213  113.0160 C.ar      1 <0>        -0.1150 
      6 C6         18.7465   14.7656  111.8079 C.ar      1 <0>        -0.1150 
      7 C7         17.4759   12.6970  111.6736 C.ar      1 <0>        -0.1150 
      8 C8         22.7856   15.4734  105.5881 C.ar      1 <0>        -0.1150 
      9 C9         22.6171   14.3326  106.3838 C.ar      1 <0>        -0.1150 
     10 C10        20.5518   16.2202  106.1862 C.ar      1 <0>        -0.1150 
     11 C11        13.7502   18.0669  110.3030 C.3       1 <0>        -0.1200 
     12 C12        12.9402   19.3337  110.6353 C.3       1 <0>         0.1500 
     13 C13        18.9320   13.8633  108.8074 C.3       1 <0>        -0.1200 
     14 C14        14.9389   20.7481  110.3666 C.3       1 <0>         0.1500 
     15 C15        18.3841   16.1085  108.2842 C.3       1 <0>        -0.0703 
     16 C16        16.4850   13.3385  108.9663 C.3       1 <0>         0.1450 
     17 C17        17.9283   13.8894  111.0564 C.ar      1 <0>        -0.1150 
     18 C18        21.7614   16.4294  105.4996 C.ar      1 <0>         0.2200 
     19 C19        21.4392   14.1519  107.1221 C.ar      1 <0>         0.2200 
     20 C20        20.3694   15.0773  107.0008 C.ar      1 <0>        -0.1150 
     21 C21        14.9688   18.4096  109.4145 C.3       1 <0>        -0.0103 
     22 C22        19.0072   14.8593  107.6613 C.3       1 <0>         0.0550 
     23 C23        15.8168   19.5153  110.0840 C.3       1 <0>         0.1200 
     24 C24        16.4415   16.4080  109.8045 C.2       1 <0>         0.8613 
     25 C25        17.6366   14.1925  109.5720 C.3       1 <0>         0.1647 
     26 N1         13.8060   20.3746  111.2479 N.4       1 <0>        -0.1000 
     27 N2         17.3765   15.6126  109.2233 N.am      1 <0>        -0.2219 
     28 N3         15.7436   17.2274  108.9673 N.am      1 <0>        -0.2219 
     29 O1         15.2733   13.5330  109.6669 O.3       1 <0>        -0.6830 
     30 O2         16.2123   16.3546  111.0109 O.2       1 <0>        -0.6163 
     31 F1         21.9201   17.5311  104.7289 F         1 <0>        -0.2200 
     32 F2         21.3859   13.0924  107.9563 F         1 <0>        -0.2200 
     33 F3         16.3168   19.1040  111.2486 F         1 <0>        -0.2200 
     34 H1         12.5734   22.0723  110.8818 H         1 <0>         0.0600 
     35 H2         12.2725   21.2612  112.4252 H         1 <0>         0.0600 
     36 H3         13.7089   22.2585  112.2241 H         1 <0>         0.0600 
     37 H4         15.6399   15.7824  107.3620 H         1 <0>         0.0600 
     38 H5         14.2808   16.8607  107.4726 H         1 <0>         0.0600 
     39 H6         15.8224   17.4621  106.8694 H         1 <0>         0.0600 
     40 H7         18.8585   13.0666  114.7715 H         1 <0>         0.1150 
     41 H8         19.7366   15.1307  113.6937 H         1 <0>         0.1150 
     42 H9         17.3992   11.5329  113.4840 H         1 <0>         0.1150 
     43 H10        19.1346   15.6667  111.3553 H         1 <0>         0.1150 
     44 H11        16.8821   11.9689  111.1428 H         1 <0>         0.1150 
     45 H12        23.7166   15.6113  105.0679 H         1 <0>         0.1150 
     46 H13        23.4231   13.6262  106.4647 H         1 <0>         0.1150 
     47 H14        19.7633   16.9495  106.0702 H         1 <0>         0.1150 
     48 H15        14.0662   17.6032  111.2363 H         1 <0>         0.0600 
     49 H16        13.1105   17.3417  109.7992 H         1 <0>         0.0600 
     50 H17        12.4729   19.7296  109.7315 H         1 <0>         0.0600 
     51 H18        12.1305   19.0773  111.3200 H         1 <0>         0.0600 
     52 H19        18.9816   12.8228  108.4914 H         1 <0>         0.0600 
     53 H20        19.7931   14.0406  109.4542 H         1 <0>         0.0600 
     54 H21        14.5620   21.1734  109.4351 H         1 <0>         0.0600 
     55 H22        15.5180   21.5340  110.8515 H         1 <0>         0.0600 
     56 H23        17.9840   16.7701  107.5198 H         1 <0>         0.0600 
     57 H24        19.1183   16.6730  108.8577 H         1 <0>         0.0600 
     58 H25        16.3213   13.5849  107.9171 H         1 <0>         0.0600 
     59 H26        16.7353   12.2777  108.9802 H         1 <0>         0.0600 
     60 H27        14.5647   18.8769  108.5142 H         1 <0>         0.0600 
     61 H28        18.3409   14.5055  106.8713 H         1 <0>         0.0600 
     62 H29        16.6634   19.7843  109.4532 H         1 <0>         0.1000 
     63 H30        14.2280   19.9560  112.0667 H         1 <0>         0.2900 
     64 H31        15.4388   13.3552  110.5808 H         1 <0>         0.4180 
@<TRIPOS>BOND
     1    1   26 1    
     2    1   34 1    
     3    1   35 1    
     4    1   36 1    
     5    2   28 1    
     6    2   37 1    
     7    2   38 1    
     8    2   39 1    
     9    3    4 ar   
    10    3    5 ar   
    11    3   40 1    
    12    4    6 ar   
    13    4   41 1    
    14    5    7 ar   
    15    5   42 1    
    16    6   17 ar   
    17    6   43 1    
    18    7   17 ar   
    19    7   44 1    
    20    8    9 ar   
    21    8   18 ar   
    22    8   45 1    
    23    9   19 ar   
    24    9   46 1    
    25   10   18 ar   
    26   10   20 ar   
    27   10   47 1    
    28   11   12 1    
    29   11   21 1    
    30   11   48 1    
    31   11   49 1    
    32   12   26 1    
    33   12   50 1    
    34   12   51 1    
    35   13   22 1    
    36   13   25 1    
    37   13   52 1    
    38   13   53 1    
    39   14   23 1    
    40   14   26 1    
    41   14   54 1    
    42   14   55 1    
    43   15   22 1    
    44   15   27 1    
    45   15   56 1    
    46   15   57 1    
    47   16   25 1    
    48   16   29 1    
    49   16   58 1    
    50   16   59 1    
    51   17   25 1    
    52   18   31 1    
    53   19   20 ar   
    54   19   32 1    
    55   20   22 1    
    56   21   23 1    
    57   21   28 1    
    58   21   60 1    
    59   22   61 1    
    60   23   33 1    
    61   23   62 1    
    62   24   27 am   BACKBONE|DICT|INTERRES
    63   24   28 am   BACKBONE|DICT|INTERRES
    64   24   30 2    
    65   25   27 1    
    66   26   63 1    
    67   29   64 1    
@<TRIPOS>SUBSTRUCTURE
     1 <0>         1 GROUP             0       ****    0 ROOT    
@<TRIPOS>MOLECULE
kif11-ligand
64   67    1
SMALL
USER_CHARGES


@<TRIPOS>ATOM
      1 C1         11.5804   20.4836  109.1132 C.3       1 <0>         0.0900 
      2 C2         17.6759   18.1399  110.3473 C.3       1 <0>        -0.1303 
      3 C3         18.4410   13.2373  113.9467 C.ar      1 <0>        -0.1150 
      4 C4         19.0662   14.3260  113.3065 C.ar      1 <0>        -0.1150 
      5 C5         17.6246   12.3639  113.2089 C.ar      1 <0>        -0.1150 
      6 C6         18.8605   14.5526  111.9366 C.ar      1 <0>        -0.1150 
      7 C7         17.4588   12.5653  111.8290 C.ar      1 <0>        -0.1150 
      8 C8         22.7321   15.5133  105.4587 C.ar      1 <0>        -0.1150 
      9 C9         22.6528   14.3303  106.1910 C.ar      1 <0>        -0.1150 
     10 C10        20.5350   16.1625  106.2736 C.ar      1 <0>        -0.1150 
     11 C11        14.0275   17.5337  109.0753 C.3       1 <0>        -0.1200 
     12 C12        12.9379   18.4924  108.5557 C.3       1 <0>         0.1500 
     13 C13        19.1892   13.7301  108.9673 C.3       1 <0>        -0.1200 
     14 C14        13.9589   20.3888  109.7393 C.3       1 <0>         0.1500 
     15 C15        18.3796   15.8615  108.3099 C.3       1 <0>        -0.0703 
     16 C16        16.7598   12.9818  109.0623 C.3       1 <0>         0.1450 
     17 C17        18.0479   13.6776  111.1777 C.ar      1 <0>        -0.1150 
     18 C18        21.6751   16.4285  105.4968 C.ar      1 <0>         0.2200 
     19 C19        21.5244   14.0515  106.9824 C.ar      1 <0>         0.2200 
     20 C20        20.4386   14.9654  107.0232 C.ar      1 <0>        -0.1150 
     21 C21        15.3591   18.2722  109.4009 C.3       1 <0>        -0.0103 
     22 C22        19.1320   14.6476  107.7479 C.3       1 <0>         0.0550 
     23 C23        15.0437   19.4823  110.3377 C.3       1 <0>         0.1200 
     24 C24        16.4725   16.0543  109.9299 C.2       1 <0>         0.8613 
     25 C25        17.8384   13.9431  109.6769 C.3       1 <0>         0.1647 
     26 N1         12.7151   19.6177  109.5016 N.4       1 <0>        -0.1000 
     27 N2         17.5213   15.3686  109.3956 N.am      1 <0>        -0.2219 
     28 N3         16.5109   17.4110  109.8141 N.am      1 <0>        -0.2219 
     29 O1         16.3546   13.3133  107.7515 O.3       1 <0>        -0.6830 
     30 O2         15.5265   15.4734  110.4596 O.2       1 <0>        -0.6163 
     31 F1         21.7301   17.5323  104.7287 F         1 <0>        -0.2200 
     32 F2         21.5159   12.8897  107.6713 F         1 <0>        -0.2200 
     33 F3         14.6196   19.1185  111.5498 F         1 <0>        -0.2200 
     34 H1         11.8121   21.0372  108.2035 H         1 <0>         0.0600 
     35 H2         10.6792   19.8920  108.9343 H         1 <0>         0.0600 
     36 H3         11.3501   21.1929  109.9111 H         1 <0>         0.0600 
     37 H4         18.4888   17.4893  110.6678 H         1 <0>         0.0600 
     38 H5         18.0725   18.8243  109.5974 H         1 <0>         0.0600 
     39 H6         17.4092   18.7145  111.2336 H         1 <0>         0.0600 
     40 H7         18.5882   13.0852  115.0050 H         1 <0>         0.1150 
     41 H8         19.6987   14.9951  113.8726 H         1 <0>         0.1150 
     42 H9         17.1378   11.5164  113.6736 H         1 <0>         0.1150 
     43 H10        19.3382   15.4008  111.4678 H         1 <0>         0.1150 
     44 H11        16.8333   11.8504  111.3120 H         1 <0>         0.1150 
     45 H12        23.6055   15.6960  104.8668 H         1 <0>         0.1150 
     46 H13        23.4691   13.6283  106.1169 H         1 <0>         0.1150 
     47 H14        19.7235   16.8721  106.2519 H         1 <0>         0.1150 
     48 H15        13.6424   17.0265  109.9588 H         1 <0>         0.0600 
     49 H16        14.2061   16.7656  108.3243 H         1 <0>         0.0600 
     50 H17        13.2199   18.8864  107.5717 H         1 <0>         0.0600 
     51 H18        12.0043   17.9409  108.4096 H         1 <0>         0.0600 
     52 H19        19.3873   12.6797  108.7838 H         1 <0>         0.0600 
     53 H20        20.0114   14.0785  109.5935 H         1 <0>         0.0600 
     54 H21        14.3082   20.8199  108.7993 H         1 <0>         0.0600 
     55 H22        13.7653   21.2209  110.4194 H         1 <0>         0.0600 
     56 H23        17.8103   16.3671  107.5376 H         1 <0>         0.0600 
     57 H24        19.0840   16.5685  108.7218 H         1 <0>         0.0600 
     58 H25        17.1092   11.9340  109.0562 H         1 <0>         0.0600 
     59 H26        15.8465   12.9999  109.6545 H         1 <0>         0.0600 
     60 H27        15.6982   18.7007  108.4537 H         1 <0>         0.0600 
     61 H28        18.5188   14.1738  106.9832 H         1 <0>         0.0600 
     62 H29        15.9190   20.0997  110.5168 H         1 <0>         0.1000 
     63 H30        12.4654   19.2021  110.3890 H         1 <0>         0.2900 
     64 H31        15.9106   12.5571  107.3862 H         1 <0>         0.4180 
@<TRIPOS>BOND
     1    1   26 1    
     2    1   34 1    
     3    1   35 1    
     4    1   36 1    
     5    2   28 1    
     6    2   37 1    
     7    2   38 1    
     8    2   39 1    
     9    3    4 ar   
    10    3    5 ar   
    11    3   40 1    
    12    4    6 ar   
    13    4   41 1    
    14    5    7 ar   
    15    5   42 1    
    16    6   17 ar   
    17    6   43 1    
    18    7   17 ar   
    19    7   44 1    
    20    8    9 ar   
    21    8   18 ar   
    22    8   45 1    
    23    9   19 ar   
    24    9   46 1    
    25   10   18 ar   
    26   10   20 ar   
    27   10   47 1    
    28   11   12 1    
    29   11   21 1    
    30   11   48 1    
    31   11   49 1    
    32   12   26 1    
    33   12   50 1    
    34   12   51 1    
    35   13   22 1    
    36   13   25 1    
    37   13   52 1    
    38   13   53 1    
    39   14   23 1    
    40   14   26 1    
    41   14   54 1    
    42   14   55 1    
    43   15   22 1    
    44   15   27 1    
    45   15   56 1    
    46   15   57 1    
    47   16   25 1    
    48   16   29 1    
    49   16   58 1    
    50   16   59 1    
    51   17   25 1    
    52   18   31 1    
    53   19   20 ar   
    54   19   32 1    
    55   20   22 1    
    56   21   23 1    
    57   21   28 1    
    58   21   60 1    
    59   22   61 1    
    60   23   33 1    
    61   23   62 1    
    62   24   27 am   BACKBONE|DICT|INTERRES
    63   24   28 am   BACKBONE|DICT|INTERRES
    64   24   30 2    
    65   25   27 1    
    66   26   63 1    
    67   29   64 1    
@<TRIPOS>SUBSTRUCTURE
     1 <0>         1 GROUP             0       ****    0 ROOT    
@<TRIPOS>MOLECULE
kif11-ligand
64   67    1
SMALL
USER_CHARGES


@<TRIPOS>ATOM
      1 C1         12.5994   21.5490  110.1033 C.3       1 <0>         0.0900 
      2 C2         17.8639   18.0922  110.3225 C.3       1 <0>        -0.1303 
      3 C3         18.5406   13.2156  113.9164 C.ar      1 <0>        -0.1150 
      4 C4         19.1526   14.3018  113.2669 C.ar      1 <0>        -0.1150 
      5 C5         17.7100   12.3459  113.1908 C.ar      1 <0>        -0.1150 
      6 C6         18.9238   14.5231  111.8980 C.ar      1 <0>        -0.1150 
      7 C7         17.5167   12.5407  111.8149 C.ar      1 <0>        -0.1150 
      8 C8         22.7397   15.5193  105.4539 C.ar      1 <0>        -0.1150 
      9 C9         22.6656   14.3310  106.1820 C.ar      1 <0>        -0.1150 
     10 C10        20.5265   16.1398  106.2435 C.ar      1 <0>        -0.1150 
     11 C11        15.0385   18.8598  111.2719 C.3       1 <0>        -0.1200 
     12 C12        13.7226   19.6505  111.1924 C.3       1 <0>         0.1500 
     13 C13        19.1812   13.6895  108.9067 C.3       1 <0>        -0.1200 
     14 C14        14.0137   20.0249  108.7780 C.3       1 <0>         0.1500 
     15 C15        18.3909   15.8361  108.2768 C.3       1 <0>        -0.0703 
     16 C16        16.7405   12.9855  109.0748 C.3       1 <0>         0.1450 
     17 C17        18.0952   13.6515  111.1526 C.ar      1 <0>        -0.1150 
     18 C18        21.6731   16.4243  105.4823 C.ar      1 <0>         0.2200 
     19 C19        21.5325   14.0419  106.9637 C.ar      1 <0>         0.2200 
     20 C20        20.4378   14.9428  106.9888 C.ar      1 <0>        -0.1150 
     21 C21        15.3860   18.2157  109.9104 C.3       1 <0>        -0.0103 
     22 C22        19.1260   14.6194  107.7022 C.3       1 <0>         0.0550 
     23 C23        15.3442   19.2526  108.7684 C.3       1 <0>         0.1200 
     24 C24        16.5384   16.0410  109.9537 C.2       1 <0>         0.8613 
     25 C25        17.8560   13.9202  109.6560 C.3       1 <0>         0.1647 
     26 N1         13.7778   20.6553  110.1024 N.4       1 <0>        -0.1000 
     27 N2         17.5621   15.3482  109.3896 N.am      1 <0>        -0.2219 
     28 N3         16.6234   17.3981  109.9201 N.am      1 <0>        -0.2219 
     29 O1         16.2954   13.3280  107.7803 O.3       1 <0>        -0.6830 
     30 O2         15.5712   15.4756  110.4628 O.2       1 <0>        -0.6163 
     31 F1         21.7250   17.5324  104.7181 F         1 <0>        -0.2200 
     32 F2         21.5217   12.8879  107.6673 F         1 <0>        -0.2200 
     33 F3         16.3154   20.1496  108.8965 F         1 <0>        -0.2200 
     34 H1         11.6809   20.9911  109.9104 H         1 <0>         0.0600 
     35 H2         12.4978   22.0541  111.0661 H         1 <0>         0.0600 
     36 H3         12.6986   22.3178  109.3366 H         1 <0>         0.0600 
     37 H4         18.6587   17.4106  110.6301 H         1 <0>         0.0600 
     38 H5         18.2505   18.7027  109.5033 H         1 <0>         0.0600 
     39 H6         17.7208   18.7400  111.1855 H         1 <0>         0.0600 
     40 H7         18.6995   13.0672  114.9728 H         1 <0>         0.1150 
     41 H8         19.7988   14.9663  113.8236 H         1 <0>         0.1150 
     42 H9         17.2082   11.5310  113.6813 H         1 <0>         0.1150 
     43 H10        19.4012   15.3642  111.4186 H         1 <0>         0.1150 
     44 H11        16.8890   11.8270  111.3030 H         1 <0>         0.1150 
     45 H12        23.6126   15.7135  104.8670 H         1 <0>         0.1150 
     46 H13        23.4841   13.6363  106.1146 H         1 <0>         0.1150 
     47 H14        19.7049   16.8404  106.2152 H         1 <0>         0.1150 
     48 H15        15.8161   19.5512  111.5928 H         1 <0>         0.0600 
     49 H16        14.9699   18.0973  112.0516 H         1 <0>         0.0600 
     50 H17        12.8824   18.9746  111.0309 H         1 <0>         0.0600 
     51 H18        13.5453   20.1512  112.1445 H         1 <0>         0.0600 
     52 H19        19.3341   12.6436  108.6659 H         1 <0>         0.0600 
     53 H20        20.0260   13.9974  109.5235 H         1 <0>         0.0600 
     54 H21        13.1858   19.3551  108.5374 H         1 <0>         0.0600 
     55 H22        14.0328   20.7920  108.0031 H         1 <0>         0.0600 
     56 H23        17.7907   16.3343  107.5149 H         1 <0>         0.0600 
     57 H24        19.1222   16.5485  108.6536 H         1 <0>         0.0600 
     58 H25        17.0907   11.9465  109.0495 H         1 <0>         0.0600 
     59 H26        15.8534   13.0001  109.7089 H         1 <0>         0.0600 
     60 H27        14.5483   17.5513  109.6842 H         1 <0>         0.0600 
     61 H28        18.4979   14.1595  106.9414 H         1 <0>         0.0600 
     62 H29        15.5002   18.7687  107.8018 H         1 <0>         0.1000 
     63 H30        14.5830   21.2364  110.2935 H         1 <0>         0.2900 
     64 H31        15.9153   12.5492  107.3953 H         1 <0>         0.4180 
@<TRIPOS>BOND
     1    1   26 1    
     2    1   34 1    
     3    1   35 1    
     4    1   36 1    
     5    2   28 1    
     6    2   37 1    
     7    2   38 1    
     8    2   39 1    
     9    3    4 ar   
    10    3    5 ar   
    11    3   40 1    
    12    4    6 ar   
    13    4   41 1    
    14    5    7 ar   
    15    5   42 1    
    16    6   17 ar   
    17    6   43 1    
    18    7   17 ar   
    19    7   44 1    
    20    8    9 ar   
    21    8   18 ar   
    22    8   45 1    
    23    9   19 ar   
    24    9   46 1    
    25   10   18 ar   
    26   10   20 ar   
    27   10   47 1    
    28   11   12 1    
    29   11   21 1    
    30   11   48 1    
    31   11   49 1    
    32   12   26 1    
    33   12   50 1    
    34   12   51 1    
    35   13   22 1    
    36   13   25 1    
    37   13   52 1    
    38   13   53 1    
    39   14   23 1    
    40   14   26 1    
    41   14   54 1    
    42   14   55 1    
    43   15   22 1    
    44   15   27 1    
    45   15   56 1    
    46   15   57 1    
    47   16   25 1    
    48   16   29 1    
    49   16   58 1    
    50   16   59 1    
    51   17   25 1    
    52   18   31 1    
    53   19   20 ar   
    54   19   32 1    
    55   20   22 1    
    56   21   23 1    
    57   21   28 1    
    58   21   60 1    
    59   22   61 1    
    60   23   33 1    
    61   23   62 1    
    62   24   27 am   BACKBONE|DICT|INTERRES
    63   24   28 am   BACKBONE|DICT|INTERRES
    64   24   30 2    
    65   25   27 1    
    66   26   63 1    
    67   29   64 1    
@<TRIPOS>SUBSTRUCTURE
     1 <0>         1 GROUP             0       ****    0 ROOT    
@<TRIPOS>MOLECULE
kif11-ligand
64   67    1
SMALL
USER_CHARGES


@<TRIPOS>ATOM
      1 C1         11.6145   20.1349  110.7430 C.3       1 <0>         0.0900 
      2 C2         17.9041   18.2177  109.8856 C.3       1 <0>        -0.1303 
      3 C3         18.8538   13.4722  113.8317 C.ar      1 <0>        -0.1150 
      4 C4         19.4673   14.4864  113.0777 C.ar      1 <0>        -0.1150 
      5 C5         17.8705   12.6580  113.2554 C.ar      1 <0>        -0.1150 
      6 C6         19.1150   14.6576  111.7299 C.ar      1 <0>        -0.1150 
      7 C7         17.5415   12.8068  111.8983 C.ar      1 <0>        -0.1150 
      8 C8         22.7523   15.5168  105.4331 C.ar      1 <0>        -0.1150 
      9 C9         22.6738   14.3294  106.1603 C.ar      1 <0>        -0.1150 
     10 C10        20.4969   16.0899  106.1075 C.ar      1 <0>        -0.1150 
     11 C11        14.2209   17.9260  109.0217 C.3       1 <0>        -0.1200 
     12 C12        13.1060   18.9792  109.1532 C.3       1 <0>         0.1500 
     13 C13        19.1480   13.6787  108.8128 C.3       1 <0>        -0.1200 
     14 C14        13.9502   19.6714  111.3682 C.3       1 <0>         0.1500 
     15 C15        18.3854   15.8177  108.1284 C.3       1 <0>        -0.0703 
     16 C16        16.7166   13.0182  109.1430 C.3       1 <0>         0.1450 
     17 C17        18.1675   13.8047  111.1099 C.ar      1 <0>        -0.1150 
     18 C18        21.6733   16.4073  105.4101 C.ar      1 <0>         0.2200 
     19 C19        21.5233   14.0271  106.9103 C.ar      1 <0>         0.2200 
     20 C20        20.4079   14.8998  106.8728 C.ar      1 <0>        -0.1150 
     21 C21        15.4725   18.3698  109.8128 C.3       1 <0>        -0.0103 
     22 C22        19.0922   14.5773  107.5814 C.3       1 <0>         0.0550 
     23 C23        15.0890   18.6436  111.2831 C.3       1 <0>         0.1200 
     24 C24        16.5629   16.1158  109.8188 C.2       1 <0>         0.8613 
     25 C25        17.8619   13.9792  109.6095 C.3       1 <0>         0.1647 
     26 N1         12.7715   19.2254  110.5809 N.4       1 <0>        -0.1000 
     27 N2         17.5714   15.3883  109.2715 N.am      1 <0>        -0.2219 
     28 N3         16.6408   17.4759  109.7009 N.am      1 <0>        -0.2219 
     29 O1         16.3345   13.1322  107.7883 O.3       1 <0>        -0.6830 
     30 O2         15.6237   15.5612  110.3841 O.2       1 <0>        -0.6163 
     31 F1         21.7424   17.5320  104.6695 F         1 <0>        -0.2200 
     32 F2         21.5193   12.8990  107.6619 F         1 <0>        -0.2200 
     33 F3         14.7134   17.5324  111.9205 F         1 <0>        -0.2200 
     34 H1         11.8441   21.1324  110.3648 H         1 <0>         0.0600 
     35 H2         10.7437   19.7575  110.2048 H         1 <0>         0.0600 
     36 H3         11.3398   20.2251  111.7945 H         1 <0>         0.0600 
     37 H4         18.6613   17.6258  110.4035 H         1 <0>         0.0600 
     38 H5         18.2995   18.5325  108.9178 H         1 <0>         0.0600 
     39 H6         17.7774   19.1276  110.4751 H         1 <0>         0.0600 
     40 H7         19.1206   13.3214  114.8663 H         1 <0>         0.1150 
     41 H8         20.2123   15.1266  113.5279 H         1 <0>         0.1150 
     42 H9         17.3694   11.9136  113.8525 H         1 <0>         0.1150 
     43 H10        19.6015   15.4332  111.1588 H         1 <0>         0.1150 
     44 H11        16.8008   12.1314  111.4988 H         1 <0>         0.1150 
     45 H12        23.6579   15.7333  104.9050 H         1 <0>         0.1150 
     46 H13        23.5127   13.6560  106.1328 H         1 <0>         0.1150 
     47 H14        19.6667   16.7735  106.0446 H         1 <0>         0.1150 
     48 H15        13.8361   16.9704  109.3796 H         1 <0>         0.0600 
     49 H16        14.4743   17.7812  107.9688 H         1 <0>         0.0600 
     50 H17        13.4150   19.9131  108.6818 H         1 <0>         0.0600 
     51 H18        12.2179   18.6347  108.6195 H         1 <0>         0.0600 
     52 H19        19.2513   12.6217  108.5931 H         1 <0>         0.0600 
     53 H20        20.0306   13.9644  109.3876 H         1 <0>         0.0600 
     54 H21        14.2937   20.6385  111.0013 H         1 <0>         0.0600 
     55 H22        13.6657   19.8131  112.4122 H         1 <0>         0.0600 
     56 H23        17.7910   16.3143  107.3591 H         1 <0>         0.0600 
     57 H24        19.1470   16.5090  108.4795 H         1 <0>         0.0600 
     58 H25        17.0403   11.9865  109.2839 H         1 <0>         0.0600 
     59 H26        15.8113   13.1414  109.7372 H         1 <0>         0.0600 
     60 H27        15.7692   19.3219  109.3711 H         1 <0>         0.0600 
     61 H28        18.4574   14.1073  106.8301 H         1 <0>         0.0600 
     62 H29        15.9548   19.0212  111.8244 H         1 <0>         0.1000 
     63 H30        12.4952   18.3351  110.9674 H         1 <0>         0.2900 
     64 H31        15.9560   12.2951  107.5331 H         1 <0>         0.4180 
@<TRIPOS>BOND
     1    1   26 1    
     2    1   34 1    
     3    1   35 1    
     4    1   36 1    
     5    2   28 1    
     6    2   37 1    
     7    2   38 1    
     8    2   39 1    
     9    3    4 ar   
    10    3    5 ar   
    11    3   40 1    
    12    4    6 ar   
    13    4   41 1    
    14    5    7 ar   
    15    5   42 1    
    16    6   17 ar   
    17    6   43 1    
    18    7   17 ar   
    19    7   44 1    
    20    8    9 ar   
    21    8   18 ar   
    22    8   45 1    
    23    9   19 ar   
    24    9   46 1    
    25   10   18 ar   
    26   10   20 ar   
    27   10   47 1    
    28   11   12 1    
    29   11   21 1    
    30   11   48 1    
    31   11   49 1    
    32   12   26 1    
    33   12   50 1    
    34   12   51 1    
    35   13   22 1    
    36   13   25 1    
    37   13   52 1    
    38   13   53 1    
    39   14   23 1    
    40   14   26 1    
    41   14   54 1    
    42   14   55 1    
    43   15   22 1    
    44   15   27 1    
    45   15   56 1    
    46   15   57 1    
    47   16   25 1    
    48   16   29 1    
    49   16   58 1    
    50   16   59 1    
    51   17   25 1    
    52   18   31 1    
    53   19   20 ar   
    54   19   32 1    
    55   20   22 1    
    56   21   23 1    
    57   21   28 1    
    58   21   60 1    
    59   22   61 1    
    60   23   33 1    
    61   23   62 1    
    62   24   27 am   BACKBONE|DICT|INTERRES
    63   24   28 am   BACKBONE|DICT|INTERRES
    64   24   30 2    
    65   25   27 1    
    66   26   63 1    
    67   29   64 1    
@<TRIPOS>SUBSTRUCTURE
     1 <0>         1 GROUP             0       ****    0 ROOT    
@<TRIPOS>MOLECULE
kif11-ligand
64   67    1
SMALL
USER_CHARGES


@<TRIPOS>ATOM
      1 C1         12.3679   21.2259  108.7596 C.3       1 <0>         0.0900 
      2 C2         17.8823   18.1627  110.4929 C.3       1 <0>        -0.1303 
      3 C3         18.5605   13.1721  113.9133 C.ar      1 <0>        -0.1150 
      4 C4         19.1697   14.2767  113.2923 C.ar      1 <0>        -0.1150 
      5 C5         17.7086   12.3374  113.1761 C.ar      1 <0>        -0.1150 
      6 C6         18.9180   14.5476  111.9381 C.ar      1 <0>        -0.1150 
      7 C7         17.5080   12.5703  111.8068 C.ar      1 <0>        -0.1150 
      8 C8         22.7193   15.5094  105.4480 C.ar      1 <0>        -0.1150 
      9 C9         22.6408   14.3321  106.1930 C.ar      1 <0>        -0.1150 
     10 C10        20.5205   16.1703  106.2363 C.ar      1 <0>        -0.1150 
     11 C11        15.5406   19.8093  110.3411 C.3       1 <0>        -0.1200 
     12 C12        14.2099   20.5714  110.2567 C.3       1 <0>         0.1500 
     13 C13        19.1772   13.7833  108.9512 C.3       1 <0>        -0.1200 
     14 C14        13.3223   18.9557  108.6392 C.3       1 <0>         0.1500 
     15 C15        18.4036   15.9375  108.3205 C.3       1 <0>        -0.0703 
     16 C16        16.7717   13.1251  108.9890 C.3       1 <0>         0.1450 
     17 C17        18.0812   13.6997  111.1751 C.ar      1 <0>        -0.1150 
     18 C18        21.6660   16.4310  105.4679 C.ar      1 <0>         0.2200 
     19 C19        21.5165   14.0756  106.9935 C.ar      1 <0>         0.2200 
     20 C20        20.4264   14.9892  107.0077 C.ar      1 <0>        -0.1150 
     21 C21        15.3887   18.3070  110.0117 C.3       1 <0>        -0.0103 
     22 C22        19.1168   14.7048  107.7428 C.3       1 <0>         0.0550 
     23 C23        14.6319   18.1492  108.6701 C.3       1 <0>         0.1200 
     24 C24        16.5577   16.1609  110.0034 C.2       1 <0>         0.8613 
     25 C25        17.8470   14.0198  109.6893 C.3       1 <0>         0.1647 
     26 N1         13.5757   20.3880  108.9296 N.4       1 <0>        -0.1000 
     27 N2         17.5772   15.4576  109.4370 N.am      1 <0>        -0.2219 
     28 N3         16.6520   17.5146  110.0061 N.am      1 <0>        -0.2219 
     29 O1         15.5185   13.1327  109.6373 O.3       1 <0>        -0.6830 
     30 O2         15.5623   15.6053  110.4668 O.2       1 <0>        -0.6163 
     31 F1         21.7307   17.5323  104.6944 F         1 <0>        -0.2200 
     32 F2         21.5188   12.9402  107.7266 F         1 <0>        -0.2200 
     33 F3         15.4085   18.5661  107.6717 F         1 <0>        -0.2200 
     34 H1         11.5887   20.9400  109.4669 H         1 <0>         0.0600 
     35 H2         12.6052   22.2788  108.9188 H         1 <0>         0.0600 
     36 H3         11.9650   21.1255  107.7509 H         1 <0>         0.0600 
     37 H4         18.6740   17.4592  110.7481 H         1 <0>         0.0600 
     38 H5         18.2807   18.8277  109.7292 H         1 <0>         0.0600 
     39 H6         17.7153   18.7305  111.4063 H         1 <0>         0.0600 
     40 H7         18.7361   12.9741  114.9581 H         1 <0>         0.1150 
     41 H8         19.8245   14.9209  113.8603 H         1 <0>         0.1150 
     42 H9         17.1990   11.5270  113.6635 H         1 <0>         0.1150 
     43 H10        19.3936   15.4023  111.4817 H         1 <0>         0.1150 
     44 H11        16.8772   11.8762  111.2734 H         1 <0>         0.1150 
     45 H12        23.6007   15.6916  104.8689 H         1 <0>         0.1150 
     46 H13        23.4568   13.6305  106.1409 H         1 <0>         0.1150 
     47 H14        19.7066   16.8788  106.2024 H         1 <0>         0.1150 
     48 H15        16.2604   20.2717  109.6636 H         1 <0>         0.0600 
     49 H16        15.9180   19.9258  111.3577 H         1 <0>         0.0600 
     50 H17        13.5315   20.2304  111.0408 H         1 <0>         0.0600 
     51 H18        14.3945   21.6325  110.4369 H         1 <0>         0.0600 
     52 H19        19.3343   12.7330  108.7152 H         1 <0>         0.0600 
     53 H20        20.0232   14.0943  109.5657 H         1 <0>         0.0600 
     54 H21        12.6153   18.5519  109.3662 H         1 <0>         0.0600 
     55 H22        12.8566   18.8563  107.6577 H         1 <0>         0.0600 
     56 H23        17.8059   16.4481  107.5637 H         1 <0>         0.0600 
     57 H24        19.1331   16.6488  108.6990 H         1 <0>         0.0600 
     58 H25        16.6049   13.4375  107.9582 H         1 <0>         0.0600 
     59 H26        17.1158   12.0907  108.9373 H         1 <0>         0.0600 
     60 H27        14.7461   17.9081  110.7999 H         1 <0>         0.0600 
     61 H28        18.4646   14.2465  106.9976 H         1 <0>         0.0600 
     62 H29        14.4081   17.1017  108.4630 H         1 <0>         0.1000 
     63 H30        14.2475   20.7019  108.2427 H         1 <0>         0.2900 
     64 H31        15.3559   14.0246  109.9373 H         1 <0>         0.4180 
@<TRIPOS>BOND
     1    1   26 1    
     2    1   34 1    
     3    1   35 1    
     4    1   36 1    
     5    2   28 1    
     6    2   37 1    
     7    2   38 1    
     8    2   39 1    
     9    3    4 ar   
    10    3    5 ar   
    11    3   40 1    
    12    4    6 ar   
    13    4   41 1    
    14    5    7 ar   
    15    5   42 1    
    16    6   17 ar   
    17    6   43 1    
    18    7   17 ar   
    19    7   44 1    
    20    8    9 ar   
    21    8   18 ar   
    22    8   45 1    
    23    9   19 ar   
    24    9   46 1    
    25   10   18 ar   
    26   10   20 ar   
    27   10   47 1    
    28   11   12 1    
    29   11   21 1    
    30   11   48 1    
    31   11   49 1    
    32   12   26 1    
    33   12   50 1    
    34   12   51 1    
    35   13   22 1    
    36   13   25 1    
    37   13   52 1    
    38   13   53 1    
    39   14   23 1    
    40   14   26 1    
    41   14   54 1    
    42   14   55 1    
    43   15   22 1    
    44   15   27 1    
    45   15   56 1    
    46   15   57 1    
    47   16   25 1    
    48   16   29 1    
    49   16   58 1    
    50   16   59 1    
    51   17   25 1    
    52   18   31 1    
    53   19   20 ar   
    54   19   32 1    
    55   20   22 1    
    56   21   23 1    
    57   21   28 1    
    58   21   60 1    
    59   22   61 1    
    60   23   33 1    
    61   23   62 1    
    62   24   27 am   BACKBONE|DICT|INTERRES
    63   24   28 am   BACKBONE|DICT|INTERRES
    64   24   30 2    
    65   25   27 1    
    66   26   63 1    
    67   29   64 1    
@<TRIPOS>SUBSTRUCTURE
     1 <0>         1 GROUP             0       ****    0 ROOT    
@<TRIPOS>MOLECULE
kif11-ligand
64   67    1
SMALL
USER_CHARGES


@<TRIPOS>ATOM
      1 C1         14.0676   21.9403  111.2765 C.3       1 <0>         0.0900 
      2 C2         15.1617   16.2210  107.9612 C.3       1 <0>        -0.1303 
      3 C3         18.6966   13.2235  113.9206 C.ar      1 <0>        -0.1150 
      4 C4         17.8230   12.3742  113.2240 C.ar      1 <0>        -0.1150 
      5 C5         19.2761   14.3307  113.2671 C.ar      1 <0>        -0.1150 
      6 C6         17.5541   12.6030  111.8680 C.ar      1 <0>        -0.1150 
      7 C7         18.9981   14.5625  111.9099 C.ar      1 <0>        -0.1150 
      8 C8         22.7216   15.5187  105.4471 C.ar      1 <0>        -0.1150 
      9 C9         22.6525   14.3321  106.1767 C.ar      1 <0>        -0.1150 
     10 C10        20.5186   16.1512  106.2458 C.ar      1 <0>        -0.1150 
     11 C11        14.4869   18.1572  111.0231 C.3       1 <0>        -0.1200 
     12 C12        13.7881   19.5061  111.2443 C.3       1 <0>         0.1500 
     13 C13        19.2229   13.7517  108.9592 C.3       1 <0>        -0.1200 
     14 C14        15.2844   20.5921  109.6057 C.3       1 <0>         0.1500 
     15 C15        18.3799   15.8536  108.2749 C.3       1 <0>        -0.0703 
     16 C16        16.8534   12.9754  109.0532 C.3       1 <0>         0.1450 
     17 C17        18.1307   13.7040  111.1889 C.ar      1 <0>        -0.1150 
     18 C18        21.6606   16.4285  105.4784 C.ar      1 <0>         0.2200 
     19 C19        21.5243   14.0486  106.9641 C.ar      1 <0>         0.2200 
     20 C20        20.4335   14.9562  106.9955 C.ar      1 <0>        -0.1150 
     21 C21        15.0506   18.0607  109.5856 C.3       1 <0>        -0.0103 
     22 C22        19.1338   14.6373  107.7259 C.3       1 <0>         0.0550 
     23 C23        15.9887   19.2482  109.3181 C.3       1 <0>         0.1200 
     24 C24        16.6265   16.1340  109.9796 C.2       1 <0>         0.8613 
     25 C25        17.8832   13.9538  109.6890 C.3       1 <0>         0.1647 
     26 N1         14.7087   20.6405  110.9772 N.4       1 <0>        -0.1000 
     27 N2         17.4835   15.3285  109.3070 N.am      1 <0>        -0.2219 
     28 N3         15.6981   16.7773  109.2159 N.am      1 <0>        -0.2219 
     29 O1         15.5591   13.1381  109.5821 O.3       1 <0>        -0.6830 
     30 O2         16.7005   16.2836  111.1960 O.2       1 <0>        -0.6163 
     31 F1         21.7118   17.5318  104.7085 F         1 <0>        -0.2200 
     32 F2         21.5185   12.8975  107.6716 F         1 <0>        -0.2200 
     33 F3         17.0833   19.1314  110.0661 F         1 <0>        -0.2200 
     34 H1         13.1543   22.0689  110.6917 H         1 <0>         0.0600 
     35 H2         13.8079   22.0017  112.3343 H         1 <0>         0.0600 
     36 H3         14.7229   22.7785  111.0479 H         1 <0>         0.0600 
     37 H4         15.5458   15.2334  107.7048 H         1 <0>         0.0600 
     38 H5         14.0781   16.1153  108.0234 H         1 <0>         0.0600 
     39 H6         15.3928   16.8871  107.1287 H         1 <0>         0.0600 
     40 H7         18.9191   13.0329  114.9599 H         1 <0>         0.1150 
     41 H8         17.3532   11.5340  113.7081 H         1 <0>         0.1150 
     42 H9         19.9472   14.9855  113.8058 H         1 <0>         0.1150 
     43 H10        16.8950   11.9045  111.3775 H         1 <0>         0.1150 
     44 H11        19.4559   15.4080  111.4197 H         1 <0>         0.1150 
     45 H12        23.6025   15.7167  104.8687 H         1 <0>         0.1150 
     46 H13        23.4718   13.6345  106.1112 H         1 <0>         0.1150 
     47 H14        19.7012   16.8555  106.2172 H         1 <0>         0.1150 
     48 H15        15.2710   18.0854  111.7732 H         1 <0>         0.0600 
     49 H16        13.7890   17.3401  111.2114 H         1 <0>         0.0600 
     50 H17        12.9105   19.5819  110.6024 H         1 <0>         0.0600 
     51 H18        13.4336   19.5639  112.2744 H         1 <0>         0.0600 
     52 H19        19.4187   12.7024  108.7634 H         1 <0>         0.0600 
     53 H20        20.0587   14.1131  109.5616 H         1 <0>         0.0600 
     54 H21        14.4884   20.7513  108.8735 H         1 <0>         0.0600 
     55 H22        15.9931   21.4114  109.4739 H         1 <0>         0.0600 
     56 H23        17.8506   16.3846  107.4856 H         1 <0>         0.0600 
     57 H24        19.0692   16.5565  108.7445 H         1 <0>         0.0600 
     58 H25        16.7793   13.1198  107.9772 H         1 <0>         0.0600 
     59 H26        17.1492   11.9385  109.1869 H         1 <0>         0.0600 
     60 H27        14.1916   18.1950  108.9273 H         1 <0>         0.0600 
     61 H28        18.5007   14.1414  106.9910 H         1 <0>         0.0600 
     62 H29        16.3368   19.2304  108.2844 H         1 <0>         0.1000 
     63 H30        15.4897   20.5494  111.6171 H         1 <0>         0.2900 
     64 H31        15.0164   12.4775  109.1763 H         1 <0>         0.4180 
@<TRIPOS>BOND
     1    1   26 1    
     2    1   34 1    
     3    1   35 1    
     4    1   36 1    
     5    2   28 1    
     6    2   37 1    
     7    2   38 1    
     8    2   39 1    
     9    3    4 ar   
    10    3    5 ar   
    11    3   40 1    
    12    4    6 ar   
    13    4   41 1    
    14    5    7 ar   
    15    5   42 1    
    16    6   17 ar   
    17    6   43 1    
    18    7   17 ar   
    19    7   44 1    
    20    8    9 ar   
    21    8   18 ar   
    22    8   45 1    
    23    9   19 ar   
    24    9   46 1    
    25   10   18 ar   
    26   10   20 ar   
    27   10   47 1    
    28   11   12 1    
    29   11   21 1    
    30   11   48 1    
    31   11   49 1    
    32   12   26 1    
    33   12   50 1    
    34   12   51 1    
    35   13   22 1    
    36   13   25 1    
    37   13   52 1    
    38   13   53 1    
    39   14   23 1    
    40   14   26 1    
    41   14   54 1    
    42   14   55 1    
    43   15   22 1    
    44   15   27 1    
    45   15   56 1    
    46   15   57 1    
    47   16   25 1    
    48   16   29 1    
    49   16   58 1    
    50   16   59 1    
    51   17   25 1    
    52   18   31 1    
    53   19   20 ar   
    54   19   32 1    
    55   20   22 1    
    56   21   23 1    
    57   21   28 1    
    58   21   60 1    
    59   22   61 1    
    60   23   33 1    
    61   23   62 1    
    62   24   27 am   BACKBONE|DICT|INTERRES
    63   24   28 am   BACKBONE|DICT|INTERRES
    64   24   30 2    
    65   25   27 1    
    66   26   63 1    
    67   29   64 1    
@<TRIPOS>SUBSTRUCTURE
     1 <0>         1 GROUP             0       ****    0 ROOT    
@<TRIPOS>MOLECULE
kif11-ligand
64   67    1
SMALL
USER_CHARGES


@<TRIPOS>ATOM
      1 C1         14.1653   22.0898  111.0177 C.3       1 <0>         0.0900 
      2 C2         15.2043   16.2637  107.8410 C.3       1 <0>        -0.1303 
      3 C3         18.6729   13.2111  113.8992 C.ar      1 <0>        -0.1150 
      4 C4         17.8029   12.3744  113.1860 C.ar      1 <0>        -0.1150 
      5 C5         19.2384   14.3325  113.2668 C.ar      1 <0>        -0.1150 
      6 C6         17.5331   12.6228  111.8325 C.ar      1 <0>        -0.1150 
      7 C7         18.9422   14.6039  111.9176 C.ar      1 <0>        -0.1150 
      8 C8         22.7333   15.5079  105.4463 C.ar      1 <0>        -0.1150 
      9 C9         22.6483   14.3318  106.1916 C.ar      1 <0>        -0.1150 
     10 C10        20.5322   16.1706  106.2263 C.ar      1 <0>        -0.1150 
     11 C11        14.3625   18.2776  110.7707 C.3       1 <0>        -0.1200 
     12 C12        13.7123   19.6643  110.9228 C.3       1 <0>         0.1500 
     13 C13        19.1762   13.7825  108.9387 C.3       1 <0>        -0.1200 
     14 C14        15.4113   20.6695  109.4360 C.3       1 <0>         0.1500 
     15 C15        18.4089   15.9278  108.2930 C.3       1 <0>        -0.0703 
     16 C16        16.7708   13.0883  109.0566 C.3       1 <0>         0.1450 
     17 C17        18.0902   13.7499  111.1771 C.ar      1 <0>        -0.1150 
     18 C18        21.6807   16.4295  105.4611 C.ar      1 <0>         0.2200 
     19 C19        21.5187   14.0734  106.9851 C.ar      1 <0>         0.2200 
     20 C20        20.4321   14.9881  106.9955 C.ar      1 <0>        -0.1150 
     21 C21        15.0689   18.1526  109.3981 C.3       1 <0>        -0.0103 
     22 C22        19.1212   14.6980  107.7237 C.3       1 <0>         0.0550 
     23 C23        16.0788   19.2960  109.2200 C.3       1 <0>         0.1200 
     24 C24        16.5735   16.2018  109.9217 C.2       1 <0>         0.8613 
     25 C25        17.8456   14.0210  109.6783 C.3       1 <0>         0.1647 
     26 N1         14.7186   20.7448  110.7501 N.4       1 <0>        -0.1000 
     27 N2         17.4856   15.4111  109.3048 N.am      1 <0>        -0.2219 
     28 N3         15.7028   16.8488  109.0957 N.am      1 <0>        -0.2219 
     29 O1         15.5181   13.3123  109.6668 O.3       1 <0>        -0.6830 
     30 O2         16.5464   16.3296  111.1436 O.2       1 <0>        -0.6163 
     31 F1         21.7511   17.5321  104.6892 F         1 <0>        -0.2200 
     32 F2         21.5182   12.9394  107.7222 F         1 <0>        -0.2200 
     33 F3         17.0933   19.1321  110.0666 F         1 <0>        -0.2200 
     34 H1         13.3287   22.3107  110.3537 H         1 <0>         0.0600 
     35 H2         13.8176   22.1652  112.0474 H         1 <0>         0.0600 
     36 H3         14.9249   22.8596  110.8675 H         1 <0>         0.0600 
     37 H4         15.5954   15.2727  107.6172 H         1 <0>         0.0600 
     38 H5         14.1192   16.1614  107.8799 H         1 <0>         0.0600 
     39 H6         15.4555   16.9089  106.9990 H         1 <0>         0.0600 
     40 H7         18.8988   12.9988  114.9317 H         1 <0>         0.1150 
     41 H8         17.3404   11.5322  113.6689 H         1 <0>         0.1150 
     42 H9         19.9067   14.9807  113.8146 H         1 <0>         0.1150 
     43 H10        16.8955   11.9130  111.3307 H         1 <0>         0.1150 
     44 H11        19.3895   15.4653  111.4439 H         1 <0>         0.1150 
     45 H12        23.6157   15.6844  104.8675 H         1 <0>         0.1150 
     46 H13        23.4598   13.6255  106.1438 H         1 <0>         0.1150 
     47 H14        19.7227   16.8833  106.1884 H         1 <0>         0.1150 
     48 H15        15.0591   18.1567  111.6012 H         1 <0>         0.0600 
     49 H16        13.6082   17.4981  110.8778 H         1 <0>         0.0600 
     50 H17        12.9120   19.7879  110.1928 H         1 <0>         0.0600 
     51 H18        13.2560   19.7474  111.9096 H         1 <0>         0.0600 
     52 H19        19.3319   12.7320  108.7076 H         1 <0>         0.0600 
     53 H20        20.0220   14.0989  109.5509 H         1 <0>         0.0600 
     54 H21        14.6884   20.8572  108.6400 H         1 <0>         0.0600 
     55 H22        16.1629   21.4573  109.3655 H         1 <0>         0.0600 
     56 H23        17.9072   16.4976  107.5112 H         1 <0>         0.0600 
     57 H24        19.1179   16.5940  108.7872 H         1 <0>         0.0600 
     58 H25        16.6585   13.2554  107.9864 H         1 <0>         0.0600 
     59 H26        17.0498   12.0389  109.1575 H         1 <0>         0.0600 
     60 H27        14.2870   18.3191  108.6535 H         1 <0>         0.0600 
     61 H28        18.4687   14.2386  106.9799 H         1 <0>         0.0600 
     62 H29        16.5145   19.2527  108.2217 H         1 <0>         0.1000 
     63 H30        15.4343   20.5929  111.4492 H         1 <0>         0.2900 
     64 H31        15.6126   13.1411  110.5908 H         1 <0>         0.4180 
@<TRIPOS>BOND
     1    1   26 1    
     2    1   34 1    
     3    1   35 1    
     4    1   36 1    
     5    2   28 1    
     6    2   37 1    
     7    2   38 1    
     8    2   39 1    
     9    3    4 ar   
    10    3    5 ar   
    11    3   40 1    
    12    4    6 ar   
    13    4   41 1    
    14    5    7 ar   
    15    5   42 1    
    16    6   17 ar   
    17    6   43 1    
    18    7   17 ar   
    19    7   44 1    
    20    8    9 ar   
    21    8   18 ar   
    22    8   45 1    
    23    9   19 ar   
    24    9   46 1    
    25   10   18 ar   
    26   10   20 ar   
    27   10   47 1    
    28   11   12 1    
    29   11   21 1    
    30   11   48 1    
    31   11   49 1    
    32   12   26 1    
    33   12   50 1    
    34   12   51 1    
    35   13   22 1    
    36   13   25 1    
    37   13   52 1    
    38   13   53 1    
    39   14   23 1    
    40   14   26 1    
    41   14   54 1    
    42   14   55 1    
    43   15   22 1    
    44   15   27 1    
    45   15   56 1    
    46   15   57 1    
    47   16   25 1    
    48   16   29 1    
    49   16   58 1    
    50   16   59 1    
    51   17   25 1    
    52   18   31 1    
    53   19   20 ar   
    54   19   32 1    
    55   20   22 1    
    56   21   23 1    
    57   21   28 1    
    58   21   60 1    
    59   22   61 1    
    60   23   33 1    
    61   23   62 1    
    62   24   27 am   BACKBONE|DICT|INTERRES
    63   24   28 am   BACKBONE|DICT|INTERRES
    64   24   30 2    
    65   25   27 1    
    66   26   63 1    
    67   29   64 1    
@<TRIPOS>SUBSTRUCTURE
     1 <0>         1 GROUP             0       ****    0 ROOT    
@<TRIPOS>MOLECULE
kif11-ligand
64   67    1
SMALL
USER_CHARGES


@<TRIPOS>ATOM
      1 C1         13.5254   22.8558  111.3342 C.3       1 <0>         0.0900 
      2 C2         15.4397   17.7290  108.0373 C.3       1 <0>        -0.1303 
      3 C3         19.0675   13.5476  113.6859 C.ar      1 <0>        -0.1150 
      4 C4         18.0469   12.7916  113.0995 C.ar      1 <0>        -0.1150 
      5 C5         19.5189   14.7261  113.0701 C.ar      1 <0>        -0.1150 
      6 C6         17.5181   13.1852  111.8619 C.ar      1 <0>        -0.1150 
      7 C7         18.9734   15.1316  111.8396 C.ar      1 <0>        -0.1150 
      8 C8         22.5961   15.4250  105.4781 C.ar      1 <0>        -0.1150 
      9 C9         22.3781   14.3364  106.3370 C.ar      1 <0>        -0.1150 
     10 C10        20.4588   16.3690  106.1618 C.ar      1 <0>        -0.1150 
     11 C11        15.4285   20.4559  109.0312 C.3       1 <0>        -0.1200 
     12 C12        15.0797   21.7635  109.7716 C.3       1 <0>         0.1500 
     13 C13        18.6953   14.1899  108.8541 C.3       1 <0>        -0.1200 
     14 C14        14.1088   20.4852  111.6362 C.3       1 <0>         0.1500 
     15 C15        18.3785   16.5012  108.3757 C.3       1 <0>        -0.0703 
     16 C16        16.1595   14.1129  109.3690 C.3       1 <0>         0.1450 
     17 C17        17.9757   14.3552  111.2036 C.ar      1 <0>        -0.1150 
     18 C18        21.6516   16.4630  105.4192 C.ar      1 <0>         0.2200 
     19 C19        21.2186   14.2694  107.1305 C.ar      1 <0>         0.2200 
     20 C20        20.2123   15.2702  107.0184 C.ar      1 <0>        -0.1150 
     21 C21        15.6252   19.2667  110.0044 C.3       1 <0>        -0.0103 
     22 C22        18.8496   15.1942  107.7280 C.3       1 <0>         0.0550 
     23 C23        14.3756   19.1520  110.9134 C.3       1 <0>         0.1200 
     24 C24        16.6016   16.9954  110.0839 C.2       1 <0>         0.8613 
     25 C25        17.5464   14.6954  109.7595 C.3       1 <0>         0.1647 
     26 N1         13.9096   21.5904  110.6675 N.4       1 <0>        -0.1000 
     27 N2         17.4391   16.1371  109.4393 N.am      1 <0>        -0.2219 
     28 N3         16.0435   17.9987  109.3525 N.am      1 <0>        -0.2219 
     29 O1         16.1792   12.7322  109.1669 O.3       1 <0>        -0.6830 
     30 O2         16.3158   16.8390  111.2668 O.2       1 <0>        -0.6163 
     31 F1         21.8625   17.5234  104.6064 F         1 <0>        -0.2200 
     32 F2         21.1184   13.2293  107.9901 F         1 <0>        -0.2200 
     33 F3         13.2992   18.8283  110.1962 F         1 <0>        -0.2200 
     34 H1         14.3182   23.2046  111.9981 H         1 <0>         0.0600 
     35 H2         13.3320   23.6377  110.5996 H         1 <0>         0.0600 
     36 H3         12.6173   22.7236  111.9240 H         1 <0>         0.0600 
     37 H4         15.5181   16.6881  107.7266 H         1 <0>         0.0600 
     38 H5         14.3762   17.9644  108.0402 H         1 <0>         0.0600 
     39 H6         15.9165   18.3332  107.2688 H         1 <0>         0.0600 
     40 H7         19.4959   13.2157  114.6181 H         1 <0>         0.1150 
     41 H8         17.6889   11.8954  113.5826 H         1 <0>         0.1150 
     42 H9         20.3177   15.2911  113.5240 H         1 <0>         0.1150 
     43 H10        16.7674   12.5385  111.4418 H         1 <0>         0.1150 
     44 H11        19.3700   16.0139  111.3574 H         1 <0>         0.1150 
     45 H12        23.4857   15.4629  104.8683 H         1 <0>         0.1150 
     46 H13        23.1177   13.5548  106.4070 H         1 <0>         0.1150 
     47 H14        19.7220   17.1499  106.0560 H         1 <0>         0.1150 
     48 H15        14.6231   20.2453  108.3274 H         1 <0>         0.0600 
     49 H16        16.3222   20.6063  108.4276 H         1 <0>         0.0600 
     50 H17        15.9180   22.1218  110.3622 H         1 <0>         0.0600 
     51 H18        14.8660   22.5429  109.0398 H         1 <0>         0.0600 
     52 H19        18.5921   13.1597  108.5114 H         1 <0>         0.0600 
     53 H20        19.6184   14.2231  109.4322 H         1 <0>         0.0600 
     54 H21        14.9438   20.7320  112.2944 H         1 <0>         0.0600 
     55 H22        13.2243   20.3858  112.2660 H         1 <0>         0.0600 
     56 H23        17.9381   17.1321  107.6152 H         1 <0>         0.0600 
     57 H24        19.1949   17.0536  108.8333 H         1 <0>         0.0600 
     58 H25        15.4081   14.3466  110.1261 H         1 <0>         0.0600 
     59 H26        15.8039   14.5393  108.4306 H         1 <0>         0.0600 
     60 H27        16.4571   19.5321  110.6540 H         1 <0>         0.0600 
     61 H28        18.1191   14.9225  106.9638 H         1 <0>         0.0600 
     62 H29        14.4820   18.3735  111.6662 H         1 <0>         0.1000 
     63 H30        13.1328   21.3176  110.0819 H         1 <0>         0.2900 
     64 H31        16.4217   12.5277  108.2733 H         1 <0>         0.4180 
@<TRIPOS>BOND
     1    1   26 1    
     2    1   34 1    
     3    1   35 1    
     4    1   36 1    
     5    2   28 1    
     6    2   37 1    
     7    2   38 1    
     8    2   39 1    
     9    3    4 ar   
    10    3    5 ar   
    11    3   40 1    
    12    4    6 ar   
    13    4   41 1    
    14    5    7 ar   
    15    5   42 1    
    16    6   17 ar   
    17    6   43 1    
    18    7   17 ar   
    19    7   44 1    
    20    8    9 ar   
    21    8   18 ar   
    22    8   45 1    
    23    9   19 ar   
    24    9   46 1    
    25   10   18 ar   
    26   10   20 ar   
    27   10   47 1    
    28   11   12 1    
    29   11   21 1    
    30   11   48 1    
    31   11   49 1    
    32   12   26 1    
    33   12   50 1    
    34   12   51 1    
    35   13   22 1    
    36   13   25 1    
    37   13   52 1    
    38   13   53 1    
    39   14   23 1    
    40   14   26 1    
    41   14   54 1    
    42   14   55 1    
    43   15   22 1    
    44   15   27 1    
    45   15   56 1    
    46   15   57 1    
    47   16   25 1    
    48   16   29 1    
    49   16   58 1    
    50   16   59 1    
    51   17   25 1    
    52   18   31 1    
    53   19   20 ar   
    54   19   32 1    
    55   20   22 1    
    56   21   23 1    
    57   21   28 1    
    58   21   60 1    
    59   22   61 1    
    60   23   33 1    
    61   23   62 1    
    62   24   27 am   BACKBONE|DICT|INTERRES
    63   24   28 am   BACKBONE|DICT|INTERRES
    64   24   30 2    
    65   25   27 1    
    66   26   63 1    
    67   29   64 1    
@<TRIPOS>SUBSTRUCTURE
     1 <0>         1 GROUP             0       ****    0 ROOT    
@<TRIPOS>MOLECULE
kif11-ligand
64   67    1
SMALL
USER_CHARGES


@<TRIPOS>ATOM
      1 C1         12.9372   22.3407  110.6622 C.3       1 <0>         0.0900 
      2 C2         17.7686   18.4621  110.2638 C.3       1 <0>        -0.1303 
      3 C3         18.2258   13.2876  113.2237 C.ar      1 <0>        -0.1150 
      4 C4         18.7591   14.5007  112.7563 C.ar      1 <0>        -0.1150 
      5 C5         17.5183   12.4558  112.3391 C.ar      1 <0>        -0.1150 
      6 C6         18.5629   14.8887  111.4166 C.ar      1 <0>        -0.1150 
      7 C7         17.3450   12.8280  110.9919 C.ar      1 <0>        -0.1150 
      8 C8         22.8631   16.1145  105.5250 C.ar      1 <0>        -0.1150 
      9 C9         21.8188   17.0088  105.2824 C.ar      1 <0>        -0.1150 
     10 C10        21.3040   14.5562  106.5609 C.ar      1 <0>        -0.1150 
     11 C11        15.0710   19.2360  111.2331 C.3       1 <0>        -0.1200 
     12 C12        13.8502   20.1594  111.3528 C.3       1 <0>         0.1500 
     13 C13        18.9859   14.3147  108.3149 C.3       1 <0>        -0.1200 
     14 C14        14.0298   20.8643  109.0134 C.3       1 <0>         0.1500 
     15 C15        18.1282   16.4162  107.6681 C.3       1 <0>        -0.0703 
     16 C16        16.4623   13.7905  108.3139 C.3       1 <0>         0.1450 
     17 C17        17.8404   14.0661  110.5161 C.ar      1 <0>        -0.1150 
     18 C18        22.5734   14.8531  106.0507 C.ar      1 <0>         0.2200 
     19 C19        20.5220   16.6683  105.6921 C.ar      1 <0>         0.2200 
     20 C20        20.2674   15.5054  106.4549 C.ar      1 <0>        -0.1150 
     21 C21        15.3353   18.8040  109.7686 C.3       1 <0>        -0.0103 
     22 C22        18.9068   15.2166  107.0938 C.3       1 <0>         0.0550 
     23 C23        15.2704   19.9878  108.7707 C.3       1 <0>         0.1200 
     24 C24        16.4115   16.6139  109.5069 C.2       1 <0>         0.8613 
     25 C25        17.6481   14.5069  109.0470 C.3       1 <0>         0.1647 
     26 N1         13.9747   21.3127  110.4286 N.4       1 <0>        -0.1000 
     27 N2         17.4243   15.9531  108.8840 N.am      1 <0>        -0.2219 
     28 N3         16.5484   17.9569  109.6144 N.am      1 <0>        -0.2219 
     29 O1         16.9035   12.7322  107.5045 O.3       1 <0>        -0.6830 
     30 O2         15.4390   16.0257  109.9861 O.2       1 <0>        -0.6163 
     31 F1         23.5362   13.9327  106.0661 F         1 <0>        -0.2200 
     32 F2         19.5183   17.4353  105.2663 F         1 <0>        -0.2200 
     33 F3         16.3179   20.7967  108.8679 F         1 <0>        -0.2200 
     34 H1         11.9392   21.9439  110.4712 H         1 <0>         0.0600 
     35 H2         12.9726   22.6959  111.6929 H         1 <0>         0.0600 
     36 H3         13.0934   23.2026  110.0124 H         1 <0>         0.0600 
     37 H4         18.6904   18.0090  109.9041 H         1 <0>         0.0600 
     38 H5         17.8786   19.5278  110.1155 H         1 <0>         0.0600 
     39 H6         17.7326   18.2795  111.3377 H         1 <0>         0.0600 
     40 H7         18.3630   12.9925  114.2545 H         1 <0>         0.1150 
     41 H8         19.3180   15.1324  113.4293 H         1 <0>         0.1150 
     42 H9         17.0975   11.5321  112.6988 H         1 <0>         0.1150 
     43 H10        18.9841   15.8244  111.0799 H         1 <0>         0.1150 
     44 H11        16.8225   12.1451  110.3386 H         1 <0>         0.1150 
     45 H12        23.8806   16.3569  105.2669 H         1 <0>         0.1150 
     46 H13        21.9966   17.9256  104.7434 H         1 <0>         0.1150 
     47 H14        21.1457   13.5912  107.0168 H         1 <0>         0.1150 
     48 H15        15.9191   19.7615  111.6644 H         1 <0>         0.0600 
     49 H16        14.9224   18.3506  111.8529 H         1 <0>         0.0600 
     50 H17        12.9337   19.6078  111.1366 H         1 <0>         0.0600 
     51 H18        13.7692   20.5153  112.3809 H         1 <0>         0.0600 
     52 H19        19.2138   13.2812  108.0782 H         1 <0>         0.0600 
     53 H20        19.7997   14.6682  108.9511 H         1 <0>         0.0600 
     54 H21        13.1208   20.3135  108.7658 H         1 <0>         0.0600 
     55 H22        14.0624   21.7301  108.3500 H         1 <0>         0.0600 
     56 H23        17.4008   16.7323  106.9226 H         1 <0>         0.0600 
     57 H24        18.7974   17.2442  107.8941 H         1 <0>         0.0600 
     58 H25        15.6718   13.4699  108.9926 H         1 <0>         0.0600 
     59 H26        15.9693   14.4640  107.6115 H         1 <0>         0.0600 
     60 H27        14.4638   18.2057  109.4925 H         1 <0>         0.0600 
     61 H28        18.2969   14.7271  106.3325 H         1 <0>         0.0600 
     62 H29        15.2754   19.6176  107.7446 H         1 <0>         0.1000 
     63 H30        14.8634   21.7550  110.6315 H         1 <0>         0.2900 
     64 H31        16.3186   11.9852  107.6013 H         1 <0>         0.4180 
@<TRIPOS>BOND
     1    1   26 1    
     2    1   34 1    
     3    1   35 1    
     4    1   36 1    
     5    2   28 1    
     6    2   37 1    
     7    2   38 1    
     8    2   39 1    
     9    3    4 ar   
    10    3    5 ar   
    11    3   40 1    
    12    4    6 ar   
    13    4   41 1    
    14    5    7 ar   
    15    5   42 1    
    16    6   17 ar   
    17    6   43 1    
    18    7   17 ar   
    19    7   44 1    
    20    8    9 ar   
    21    8   18 ar   
    22    8   45 1    
    23    9   19 ar   
    24    9   46 1    
    25   10   18 ar   
    26   10   20 ar   
    27   10   47 1    
    28   11   12 1    
    29   11   21 1    
    30   11   48 1    
    31   11   49 1    
    32   12   26 1    
    33   12   50 1    
    34   12   51 1    
    35   13   22 1    
    36   13   25 1    
    37   13   52 1    
    38   13   53 1    
    39   14   23 1    
    40   14   26 1    
    41   14   54 1    
    42   14   55 1    
    43   15   22 1    
    44   15   27 1    
    45   15   56 1    
    46   15   57 1    
    47   16   25 1    
    48   16   29 1    
    49   16   58 1    
    50   16   59 1    
    51   17   25 1    
    52   18   31 1    
    53   19   20 ar   
    54   19   32 1    
    55   20   22 1    
    56   21   23 1    
    57   21   28 1    
    58   21   60 1    
    59   22   61 1    
    60   23   33 1    
    61   23   62 1    
    62   24   27 am   BACKBONE|DICT|INTERRES
    63   24   28 am   BACKBONE|DICT|INTERRES
    64   24   30 2    
    65   25   27 1    
    66   26   63 1    
    67   29   64 1    
@<TRIPOS>SUBSTRUCTURE
     1 <0>         1 GROUP             0       ****    0 ROOT    
@<TRIPOS>MOLECULE
kif11-ligand
64   67    1
SMALL
USER_CHARGES


@<TRIPOS>ATOM
      1 C1         19.0043   13.0553  114.0650 C.3       1 <0>         0.0900 
      2 C2         17.9608   13.7490  107.8340 C.3       1 <0>        -0.1303 
      3 C3         10.8628   16.6670  108.4103 C.ar      1 <0>        -0.1150 
      4 C4         11.1292   15.3032  108.1969 C.ar      1 <0>        -0.1150 
      5 C5         11.7742   17.6361  107.9523 C.ar      1 <0>        -0.1150 
      6 C6         12.3064   14.9127  107.5305 C.ar      1 <0>        -0.1150 
      7 C7         12.9524   17.2449  107.2868 C.ar      1 <0>        -0.1150 
      8 C8         13.2450   10.2545  102.4762 C.ar      1 <0>        -0.1150 
      9 C9         13.3630   11.5643  101.9787 C.ar      1 <0>        -0.1150 
     10 C10        14.2081   10.9792  104.5974 C.ar      1 <0>        -0.1150 
     11 C11        16.9838   12.6822  110.8354 C.3       1 <0>        -0.1200 
     12 C12        17.3787   12.5892  112.3234 C.3       1 <0>         0.1500 
     13 C13        14.1344   14.7068  105.0339 C.3       1 <0>        -0.1200 
     14 C14        18.9138   14.5051  112.0806 C.3       1 <0>         0.1500 
     15 C15        15.1551   13.0780  106.4454 C.3       1 <0>        -0.0703 
     16 C16        15.5269   16.5702  106.0695 C.3       1 <0>         0.1450 
     17 C17        13.2435   15.8731  107.0696 C.ar      1 <0>        -0.1150 
     18 C18        13.6807    9.9623  103.7806 C.ar      1 <0>         0.2200 
     19 C19        13.9098   12.5812  102.7849 C.ar      1 <0>         0.2200 
     20 C20        14.3255   12.3035  104.1100 C.ar      1 <0>        -0.1150 
     21 C21        17.2741   14.0631  110.2231 C.3       1 <0>        -0.0103 
     22 C22        14.9408   13.4116  104.9680 C.3       1 <0>         0.0550 
     23 C23        18.7208   14.5038  110.5590 C.3       1 <0>         0.1200 
     24 C24        15.6197   14.4555  108.4379 C.2       1 <0>         0.8613 
     25 C25        14.5387   15.3997  106.3603 C.3       1 <0>         0.1647 
     26 N1         18.7184   13.1351  112.6195 N.4       1 <0>        -0.1000 
     27 N2         15.2844   14.3670  107.1258 N.am      1 <0>        -0.2219 
     28 N3         16.8910   14.0990  108.7850 N.am      1 <0>        -0.2219 
     29 O1         16.6749   16.1510  105.3520 O.3       1 <0>        -0.6830 
     30 O2         14.8423   14.9251  109.2670 O.2       1 <0>        -0.6163 
     31 F1         13.6170    8.6946  104.2416 F         1 <0>        -0.2200 
     32 F2         14.0431   13.8238  102.2639 F         1 <0>        -0.2200 
     33 F3         19.6426   13.6731  110.0641 F         1 <0>        -0.2200 
     34 H1         18.1986   13.5108  114.6410 H         1 <0>         0.0600 
     35 H2         19.1154   12.0192  114.3891 H         1 <0>         0.0600 
     36 H3         19.9183   13.5891  114.2966 H         1 <0>         0.0600 
     37 H4         17.6953   13.7666  106.7793 H         1 <0>         0.0600 
     38 H5         18.7961   14.4436  107.9128 H         1 <0>         0.0600 
     39 H6         18.3181   12.7429  108.0659 H         1 <0>         0.0600 
     40 H7          9.9600   16.9694  108.9215 H         1 <0>         0.1150 
     41 H8         10.4307   14.5555  108.5429 H         1 <0>         0.1150 
     42 H9         11.5706   18.6848  108.1144 H         1 <0>         0.1150 
     43 H10        12.4882   13.8592  107.3805 H         1 <0>         0.1150 
     44 H11        13.6192   18.0285  106.9625 H         1 <0>         0.1150 
     45 H12        12.8375    9.4713  101.8547 H         1 <0>         0.1150 
     46 H13        13.0459   11.7891  100.9712 H         1 <0>         0.1150 
     47 H14        14.5345   10.7121  105.5922 H         1 <0>         0.1150 
     48 H15        17.5183   11.9318  110.2657 H         1 <0>         0.0600 
     49 H16        15.9269   12.4348  110.7265 H         1 <0>         0.0600 
     50 H17        16.7182   13.1779  112.9421 H         1 <0>         0.0600 
     51 H18        17.3029   11.5572  112.6681 H         1 <0>         0.0600 
     52 H19        14.2821   15.3453  104.1626 H         1 <0>         0.0600 
     53 H20        13.0753   14.4447  105.0383 H         1 <0>         0.0600 
     54 H21        18.2191   15.1982  112.5573 H         1 <0>         0.0600 
     55 H22        19.9177   14.8579  112.3173 H         1 <0>         0.0600 
     56 H23        16.0112   12.4165  106.5683 H         1 <0>         0.0600 
     57 H24        14.2887   12.5692  106.8695 H         1 <0>         0.0600 
     58 H25        15.0492   17.3369  105.4588 H         1 <0>         0.0600 
     59 H26        15.8490   17.0506  106.9950 H         1 <0>         0.0600 
     60 H27        16.6583   14.7804  110.7679 H         1 <0>         0.0600 
     61 H28        15.9163   13.6365  104.5332 H         1 <0>         0.0600 
     62 H29        18.9280   15.4943  110.1502 H         1 <0>         0.1000 
     63 H30        19.3907   12.5531  112.1399 H         1 <0>         0.2900 
     64 H31        17.0518   15.3993  105.7860 H         1 <0>         0.4180 
@<TRIPOS>BOND
     1    1   26 1    
     2    1   34 1    
     3    1   35 1    
     4    1   36 1    
     5    2   28 1    
     6    2   37 1    
     7    2   38 1    
     8    2   39 1    
     9    3    4 ar   
    10    3    5 ar   
    11    3   40 1    
    12    4    6 ar   
    13    4   41 1    
    14    5    7 ar   
    15    5   42 1    
    16    6   17 ar   
    17    6   43 1    
    18    7   17 ar   
    19    7   44 1    
    20    8    9 ar   
    21    8   18 ar   
    22    8   45 1    
    23    9   19 ar   
    24    9   46 1    
    25   10   18 ar   
    26   10   20 ar   
    27   10   47 1    
    28   11   12 1    
    29   11   21 1    
    30   11   48 1    
    31   11   49 1    
    32   12   26 1    
    33   12   50 1    
    34   12   51 1    
    35   13   22 1    
    36   13   25 1    
    37   13   52 1    
    38   13   53 1    
    39   14   23 1    
    40   14   26 1    
    41   14   54 1    
    42   14   55 1    
    43   15   22 1    
    44   15   27 1    
    45   15   56 1    
    46   15   57 1    
    47   16   25 1    
    48   16   29 1    
    49   16   58 1    
    50   16   59 1    
    51   17   25 1    
    52   18   31 1    
    53   19   20 ar   
    54   19   32 1    
    55   20   22 1    
    56   21   23 1    
    57   21   28 1    
    58   21   60 1    
    59   22   61 1    
    60   23   33 1    
    61   23   62 1    
    62   24   27 am   BACKBONE|DICT|INTERRES
    63   24   28 am   BACKBONE|DICT|INTERRES
    64   24   30 2    
    65   25   27 1    
    66   26   63 1    
    67   29   64 1    
@<TRIPOS>SUBSTRUCTURE
     1 <0>         1 GROUP             0       ****    0 ROOT    
