@<TRIPOS>MOLECULE
kit-ligand
36   38    1
SMALL
USER_CHARGES


@<TRIPOS>ATOM
      1 C1         33.2374    0.0257  -27.8518 C.3       1 <0>        -0.0650 
      2 C2         28.3369   -1.5708  -28.3847 C.3       1 <0>        -0.0250 
      3 C3         36.1287   -7.3675  -29.1773 C.ar      1 <0>        -0.1150 
      4 C4         34.7788   -7.6978  -28.9299 C.ar      1 <0>        -0.1150 
      5 C5         35.6146   -4.9640  -29.0164 C.ar      1 <0>        -0.1150 
      6 C6         33.0229   -3.1425  -28.3812 C.2       1 <0>        -0.1150 
      7 C7         31.9954   -0.8207  -27.9849 C.ar      1 <0>        -0.1460 
      8 C8         29.8140   -1.4302  -28.1845 C.ar      1 <0>        -0.1630 
      9 C9         36.5483   -6.0146  -29.1857 C.ar      1 <0>         0.2200 
     10 C10        33.8847   -6.6354  -28.7216 C.ar      1 <0>         0.0850 
     11 C11        34.2704   -5.3070  -28.7803 C.ar      1 <0>         0.0000 
     12 C12        31.9653   -2.1803  -28.1803 C.ar      1 <0>        -0.0080 
     13 C13        30.6384   -0.3468  -28.0016 C.ar      1 <0>        -0.1437 
     14 C14        33.0875   -4.4951  -28.4648 C.2       1 <0>        -0.0567 
     15 C15        32.0036   -5.4623  -28.2387 C.2       1 <0>         0.5567 
     16 C16        30.1182    1.0449  -27.9848 C.2       1 <0>         0.6127 
     17 N1         29.0866    1.3264  -27.1855 N.am      1 <0>        -0.7600 
     18 N2         30.6367   -2.5330  -28.2321 N.pl3     1 <0>        -0.2390 
     19 N3         32.5334   -6.6875  -28.3846 N.am      1 <0>        -0.3850 
     20 O1         30.8219   -5.2613  -27.9648 O.2       1 <0>        -0.5000 
     21 O2         30.6182    1.9168  -28.6917 O.2       1 <0>        -0.5000 
     22 F1         37.8523   -5.7303  -29.4067 F         1 <0>        -0.2200 
     23 H1         34.0050   -0.5022  -27.2863 H         1 <0>         0.0600 
     24 H2         33.6360    0.2651  -28.8376 H         1 <0>         0.0600 
     25 H3         33.0191    0.9590  -27.3328 H         1 <0>         0.0600 
     26 H4         28.0343   -1.1309  -29.3361 H         1 <0>         0.0600 
     27 H5         28.0350   -2.6185  -28.3915 H         1 <0>         0.0600 
     28 H6         27.7818   -1.0696  -27.5912 H         1 <0>         0.0600 
     29 H7         36.8550   -8.1527  -29.3283 H         1 <0>         0.1150 
     30 H8         34.4539   -8.7272  -28.8881 H         1 <0>         0.1150 
     31 H9         35.9325   -3.9327  -29.0418 H         1 <0>         0.1150 
     32 H10        33.9654   -2.6519  -28.5717 H         1 <0>         0.1150 
     33 H11        28.6922    2.2555  -27.1723 H         1 <0>         0.3800 
     34 H12        28.6917    0.6128  -26.5775 H         1 <0>         0.3800 
     35 H13        30.3242   -3.4916  -28.3510 H         1 <0>         0.3170 
     36 H14        32.0252   -7.5532  -28.2811 H         1 <0>         0.3000 
@<TRIPOS>BOND
     1    1   23 1    
     2    1    7 1    
     3    1   25 1    
     4    1   24 1    
     5    2   26 1    
     6    2    8 1    
     7    2   27 1    
     8    2   28 1    
     9    3   29 1    
    10    3    9 ar   
    11    3    4 ar   
    12    4   30 1    
    13    4   10 ar   
    14    5    9 ar   
    15    5   31 1    
    16    5   11 ar   
    17    6   32 1    
    18    6   14 2    
    19    6   12 1    
    20    7   12 ar   
    21    7   13 ar   
    22    8   18 ar   
    23    8   13 ar   
    24    9   22 1    
    25   10   11 ar   
    26   10   19 1    
    27   11   14 1    
    28   12   18 ar   
    29   13   16 1    
    30   14   15 1    
    31   15   19 am   BACKBONE|DICT|INTERRES
    32   15   20 2    
    33   16   21 2    
    34   16   17 am   BACKBONE|DICT|INTERRES
    35   17   33 1    
    36   17   34 1    
    37   18   35 1    
    38   19   36 1    
@<TRIPOS>SUBSTRUCTURE
     1 <0>         1 GROUP             0       ****    0 ROOT    
@<TRIPOS>MOLECULE
kit-ligand
36   38    1
SMALL
USER_CHARGES


@<TRIPOS>ATOM
      1 C1         30.6057   -6.5119  -25.8301 C.3       1 <0>        -0.0650 
      2 C2         27.8749   -9.7970  -28.7670 C.3       1 <0>        -0.0250 
      3 C3         37.2371   -6.3220  -29.3977 C.ar      1 <0>        -0.1150 
      4 C4         36.3097   -5.2764  -29.1849 C.ar      1 <0>        -0.1150 
      5 C5         35.4833   -8.0104  -29.0387 C.ar      1 <0>        -0.1150 
      6 C6         32.3841   -8.0250  -28.1855 C.2       1 <0>        -0.1150 
      7 C7         30.1996   -7.5208  -26.8766 C.ar      1 <0>        -0.1460 
      8 C8         28.9078   -8.9539  -28.0888 C.ar      1 <0>        -0.1630 
      9 C9         36.8223   -7.6772  -29.3467 C.ar      1 <0>         0.2200 
     10 C10        34.9897   -5.6394  -28.8761 C.ar      1 <0>         0.0850 
     11 C11        34.5849   -6.9592  -28.7842 C.ar      1 <0>         0.0000 
     12 C12        31.0094   -8.1375  -27.7988 C.ar      1 <0>        -0.0080 
     13 C13        28.8708   -8.0224  -27.0761 C.ar      1 <0>        -0.1437 
     14 C14        33.1754   -6.9535  -28.4050 C.2       1 <0>        -0.0567 
     15 C15        32.7770   -5.5413  -28.3850 C.2       1 <0>         0.5567 
     16 C16        27.6246   -7.6055  -26.3862 C.2       1 <0>         0.6127 
     17 N1         26.7040   -8.5406  -26.1569 N.am      1 <0>        -0.7600 
     18 N2         30.2183   -9.0172  -28.4985 N.pl3     1 <0>        -0.2390 
     19 N3         33.8868   -4.8211  -28.6260 N.am      1 <0>        -0.3850 
     20 O1         31.6574   -5.0524  -28.2618 O.2       1 <0>        -0.5000 
     21 O2         27.4643   -6.4549  -25.9848 O.2       1 <0>        -0.5000 
     22 F1         37.7190   -8.6613  -29.5851 F         1 <0>        -0.2200 
     23 H1         31.6873   -6.4095  -25.7838 H         1 <0>         0.0600 
     24 H2         30.1778   -5.5358  -26.0585 H         1 <0>         0.0600 
     25 H3         30.2491   -6.8204  -24.8477 H         1 <0>         0.0600 
     26 H4         27.0853   -9.1717  -29.1819 H         1 <0>         0.0600 
     27 H5         28.3066  -10.3743  -29.5852 H         1 <0>         0.0600 
     28 H6         27.4245  -10.5047  -28.0724 H         1 <0>         0.0600 
     29 H7         38.2672   -6.0860  -29.6220 H         1 <0>         0.1150 
     30 H8         36.6111   -4.2418  -29.2460 H         1 <0>         0.1150 
     31 H9         35.1675   -9.0423  -28.9894 H         1 <0>         0.1150 
     32 H10        32.8707   -8.9846  -28.2806 H         1 <0>         0.1150 
     33 H11        25.8630   -8.2936  -25.6598 H         1 <0>         0.3800 
     34 H12        26.8610   -9.4824  -26.4809 H         1 <0>         0.3800 
     35 H13        30.5478   -9.5957  -29.2579 H         1 <0>         0.3170 
     36 H14        33.9193   -3.8141  -28.6914 H         1 <0>         0.3000 
@<TRIPOS>BOND
     1    1   23 1    
     2    1    7 1    
     3    1   25 1    
     4    1   24 1    
     5    2   26 1    
     6    2    8 1    
     7    2   27 1    
     8    2   28 1    
     9    3   29 1    
    10    3    9 ar   
    11    3    4 ar   
    12    4   30 1    
    13    4   10 ar   
    14    5    9 ar   
    15    5   31 1    
    16    5   11 ar   
    17    6   32 1    
    18    6   14 2    
    19    6   12 1    
    20    7   12 ar   
    21    7   13 ar   
    22    8   18 ar   
    23    8   13 ar   
    24    9   22 1    
    25   10   11 ar   
    26   10   19 1    
    27   11   14 1    
    28   12   18 ar   
    29   13   16 1    
    30   14   15 1    
    31   15   19 am   BACKBONE|DICT|INTERRES
    32   15   20 2    
    33   16   21 2    
    34   16   17 am   BACKBONE|DICT|INTERRES
    35   17   33 1    
    36   17   34 1    
    37   18   35 1    
    38   19   36 1    
@<TRIPOS>SUBSTRUCTURE
     1 <0>         1 GROUP             0       ****    0 ROOT    
@<TRIPOS>MOLECULE
kit-ligand
36   38    1
SMALL
USER_CHARGES


@<TRIPOS>ATOM
      1 C1         34.9994   -0.7810  -28.1447 C.3       1 <0>        -0.0650 
      2 C2         30.0138   -2.1122  -27.6175 C.3       1 <0>        -0.0250 
      3 C3         37.3206   -8.2693  -29.5848 C.ar      1 <0>        -0.1150 
      4 C4         35.9849   -8.5493  -29.2207 C.ar      1 <0>        -0.1150 
      5 C5         36.9743   -5.8683  -29.1935 C.ar      1 <0>        -0.1150 
      6 C6         34.5390   -3.9482  -28.3849 C.2       1 <0>        -0.1150 
      7 C7         33.7057   -1.5541  -28.0181 C.ar      1 <0>        -0.1460 
      8 C8         31.4968   -2.0485  -27.7926 C.ar      1 <0>        -0.1630 
      9 C9         37.8101   -6.9413  -29.5835 C.ar      1 <0>         0.2200 
     10 C10        35.1697   -7.4599  -28.8787 C.ar      1 <0>         0.0850 
     11 C11        35.6354   -6.1570  -28.8642 C.ar      1 <0>         0.0000 
     12 C12        33.5732   -2.9187  -28.1062 C.ar      1 <0>        -0.0080 
     13 C13        32.3865   -1.0051  -27.8625 C.ar      1 <0>        -0.1437 
     14 C14        34.5045   -5.2950  -28.5250 C.2       1 <0>        -0.0567 
     15 C15        33.3525   -6.2000  -28.3848 C.2       1 <0>         0.5567 
     16 C16        31.9297    0.4070  -27.8241 C.2       1 <0>         0.6127 
     17 N1         32.7164    1.2707  -27.1853 N.am      1 <0>        -0.7600 
     18 N2         32.2390   -3.1972  -27.9349 N.pl3     1 <0>        -0.2390 
     19 N3         33.8150   -7.4504  -28.5551 N.am      1 <0>        -0.3850 
     20 O1         32.1753   -5.9320  -28.1522 O.2       1 <0>        -0.5000 
     21 O2         30.8701    0.7723  -28.3307 O.2       1 <0>        -0.5000 
     22 F1         39.0832   -6.7022  -29.9835 F         1 <0>        -0.2200 
     23 H1         35.7108   -1.2988  -28.7869 H         1 <0>         0.0600 
     24 H2         34.8293    0.2008  -28.5852 H         1 <0>         0.0600 
     25 H3         35.4570   -0.6490  -27.1645 H         1 <0>         0.0600 
     26 H4         29.5037   -1.7656  -28.5169 H         1 <0>         0.0600 
     27 H5         29.6787   -3.1289  -27.4103 H         1 <0>         0.0600 
     28 H6         29.7004   -1.4776  -26.7879 H         1 <0>         0.0600 
     29 H7         37.9828   -9.0698  -29.8693 H         1 <0>         0.1150 
     30 H8         35.6010   -9.5585  -29.2230 H         1 <0>         0.1150 
     31 H9         37.3460   -4.8546  -29.2017 H         1 <0>         0.1150 
     32 H10        35.5179   -3.5293  -28.5428 H         1 <0>         0.1150 
     33 H11        32.4382    2.2380  -27.1222 H         1 <0>         0.3800 
     34 H12        33.5856    0.9524  -26.7849 H         1 <0>         0.3800 
     35 H13        31.8635   -4.1412  -27.9586 H         1 <0>         0.3170 
     36 H14        33.2527   -8.2878  -28.5237 H         1 <0>         0.3000 
@<TRIPOS>BOND
     1    1   23 1    
     2    1    7 1    
     3    1   25 1    
     4    1   24 1    
     5    2   26 1    
     6    2    8 1    
     7    2   27 1    
     8    2   28 1    
     9    3   29 1    
    10    3    9 ar   
    11    3    4 ar   
    12    4   30 1    
    13    4   10 ar   
    14    5    9 ar   
    15    5   31 1    
    16    5   11 ar   
    17    6   32 1    
    18    6   14 2    
    19    6   12 1    
    20    7   12 ar   
    21    7   13 ar   
    22    8   18 ar   
    23    8   13 ar   
    24    9   22 1    
    25   10   11 ar   
    26   10   19 1    
    27   11   14 1    
    28   12   18 ar   
    29   13   16 1    
    30   14   15 1    
    31   15   19 am   BACKBONE|DICT|INTERRES
    32   15   20 2    
    33   16   21 2    
    34   16   17 am   BACKBONE|DICT|INTERRES
    35   17   33 1    
    36   17   34 1    
    37   18   35 1    
    38   19   36 1    
@<TRIPOS>SUBSTRUCTURE
     1 <0>         1 GROUP             0       ****    0 ROOT    
@<TRIPOS>MOLECULE
kit-ligand
36   38    1
SMALL
USER_CHARGES


@<TRIPOS>ATOM
      1 C1         34.7807   -0.7828  -28.0423 C.3       1 <0>        -0.0650 
      2 C2         29.8579   -2.3744  -27.7531 C.3       1 <0>        -0.0250 
      3 C3         37.3530   -8.2683  -29.5849 C.ar      1 <0>        -0.1150 
      4 C4         36.0232   -8.5707  -29.2229 C.ar      1 <0>        -0.1150 
      5 C5         36.9630   -5.8700  -29.1861 C.ar      1 <0>        -0.1150 
      6 C6         34.4758   -3.9925  -28.3933 C.2       1 <0>        -0.1150 
      7 C7         33.5336   -1.6341  -27.9851 C.ar      1 <0>        -0.1460 
      8 C8         31.3433   -2.2268  -27.8320 C.ar      1 <0>        -0.1630 
      9 C9         37.8164   -6.9302  -29.5779 C.ar      1 <0>         0.2200 
     10 C10        35.1896   -7.4947  -28.8812 C.ar      1 <0>         0.0850 
     11 C11        35.6283   -6.1816  -28.8640 C.ar      1 <0>         0.0000 
     12 C12        33.4676   -2.9996  -28.1183 C.ar      1 <0>        -0.0080 
     13 C13        32.1926   -1.1469  -27.8137 C.ar      1 <0>        -0.1437 
     14 C14        34.4778   -5.3422  -28.5292 C.2       1 <0>        -0.0567 
     15 C15        33.3482   -6.2758  -28.3848 C.2       1 <0>         0.5567 
     16 C16        31.7143    0.2558  -27.7108 C.2       1 <0>         0.6127 
     17 N1         30.6842    0.5075  -26.9015 N.am      1 <0>        -0.7600 
     18 N2         32.1424   -3.3348  -27.9848 N.pl3     1 <0>        -0.2390 
     19 N3         33.8370   -7.5146  -28.5581 N.am      1 <0>        -0.3850 
     20 O1         32.1655   -6.0422  -28.1444 O.2       1 <0>        -0.5000 
     21 O2         32.2728    1.1700  -28.3127 O.2       1 <0>        -0.5000 
     22 F1         39.0840   -6.6704  -29.9775 F         1 <0>        -0.2200 
     23 H1         35.6833   -1.3777  -27.9154 H         1 <0>         0.0600 
     24 H2         34.8370   -0.2687  -29.0013 H         1 <0>         0.0600 
     25 H3         34.7594   -0.0308  -27.2537 H         1 <0>         0.0600 
     26 H4         29.3668   -1.7796  -28.5232 H         1 <0>         0.0600 
     27 H5         29.5516   -3.4128  -27.8894 H         1 <0>         0.0600 
     28 H6         29.4884   -2.0435  -26.7845 H         1 <0>         0.0600 
     29 H7         38.0266   -9.0619  -29.8681 H         1 <0>         0.1150 
     30 H8         35.6579   -9.5865  -29.2264 H         1 <0>         0.1150 
     31 H9         37.3167   -4.8504  -29.1897 H         1 <0>         0.1150 
     32 H10        35.4432   -3.5411  -28.5538 H         1 <0>         0.1150 
     33 H11        30.3619    1.4572  -26.7905 H         1 <0>         0.3800 
     34 H12        30.2258   -0.2424  -26.4054 H         1 <0>         0.3800 
     35 H13        31.8114   -4.2942  -28.0435 H         1 <0>         0.3170 
     36 H14        33.2928   -8.3646  -28.5275 H         1 <0>         0.3000 
@<TRIPOS>BOND
     1    1   23 1    
     2    1    7 1    
     3    1   25 1    
     4    1   24 1    
     5    2   26 1    
     6    2    8 1    
     7    2   27 1    
     8    2   28 1    
     9    3   29 1    
    10    3    9 ar   
    11    3    4 ar   
    12    4   30 1    
    13    4   10 ar   
    14    5    9 ar   
    15    5   31 1    
    16    5   11 ar   
    17    6   32 1    
    18    6   14 2    
    19    6   12 1    
    20    7   12 ar   
    21    7   13 ar   
    22    8   18 ar   
    23    8   13 ar   
    24    9   22 1    
    25   10   11 ar   
    26   10   19 1    
    27   11   14 1    
    28   12   18 ar   
    29   13   16 1    
    30   14   15 1    
    31   15   19 am   BACKBONE|DICT|INTERRES
    32   15   20 2    
    33   16   21 2    
    34   16   17 am   BACKBONE|DICT|INTERRES
    35   17   33 1    
    36   17   34 1    
    37   18   35 1    
    38   19   36 1    
@<TRIPOS>SUBSTRUCTURE
     1 <0>         1 GROUP             0       ****    0 ROOT    
@<TRIPOS>MOLECULE
kit-ligand
36   38    1
SMALL
USER_CHARGES


@<TRIPOS>ATOM
      1 C1         29.7682   -3.5834  -28.5359 C.3       1 <0>        -0.0650 
      2 C2         28.3421   -8.3269  -26.9821 C.3       1 <0>        -0.0250 
      3 C3         37.3889   -5.8252  -29.5595 C.ar      1 <0>        -0.1150 
      4 C4         36.8562   -7.0772  -29.1852 C.ar      1 <0>        -0.1150 
      5 C5         35.2143   -4.7357  -29.1854 C.ar      1 <0>        -0.1150 
      6 C6         32.2459   -5.6364  -28.3873 C.2       1 <0>        -0.1150 
      7 C7         29.7621   -5.0372  -28.1300 C.ar      1 <0>        -0.1460 
      8 C8         29.0466   -7.0889  -27.4417 C.ar      1 <0>        -0.1630 
      9 C9         36.5687   -4.6695  -29.5858 C.ar      1 <0>         0.2200 
     10 C10        35.4936   -7.1207  -28.8579 C.ar      1 <0>         0.0850 
     11 C11        34.6913   -5.9945  -28.8419 C.ar      1 <0>         0.0000 
     12 C12        30.8597   -5.8643  -28.0771 C.ar      1 <0>        -0.0080 
     13 C13        28.6199   -5.8172  -27.7327 C.ar      1 <0>        -0.1437 
     14 C14        33.3470   -6.4204  -28.4658 C.2       1 <0>        -0.0567 
     15 C15        33.4495   -7.8698  -28.2518 C.2       1 <0>         0.5567 
     16 C16        27.1962   -5.4324  -27.5859 C.2       1 <0>         0.6127 
     17 N1         26.7112   -4.5858  -28.4904 N.am      1 <0>        -0.7600 
     18 N2         30.4010   -7.0951  -27.6708 N.pl3     1 <0>        -0.2390 
     19 N3         34.7139   -8.2220  -28.5266 N.am      1 <0>        -0.3850 
     20 O1         32.5857   -8.6692  -27.8984 O.2       1 <0>        -0.5000 
     21 O2         26.4852   -5.8730  -26.6843 O.2       1 <0>        -0.5000 
     22 F1         37.0832   -3.4870  -29.9940 F         1 <0>        -0.2200 
     23 H1         30.7333   -3.1186  -28.3393 H         1 <0>         0.0600 
     24 H2         29.5513   -3.4881  -29.5994 H         1 <0>         0.0600 
     25 H3         29.0145   -3.0245  -27.9824 H         1 <0>         0.0600 
     26 H4         27.4770   -8.5340  -27.6119 H         1 <0>         0.0600 
     27 H5         28.9986   -9.1959  -27.0182 H         1 <0>         0.0600 
     28 H6         27.9922   -8.2081  -25.9560 H         1 <0>         0.0600 
     29 H7         38.4292   -5.7596  -29.8381 H         1 <0>         0.1150 
     30 H8         37.4709   -7.9668  -29.1807 H         1 <0>         0.1150 
     31 H9         34.5970   -3.8494  -29.1871 H         1 <0>         0.1150 
     32 H10        32.4390   -4.6003  -28.6100 H         1 <0>         0.1150 
     33 H11        25.7457   -4.2982  -28.4345 H         1 <0>         0.3800 
     34 H12        27.3085   -4.2466  -29.2304 H         1 <0>         0.3800 
     35 H13        31.0078   -7.9068  -27.5805 H         1 <0>         0.3170 
     36 H14        35.0684   -9.1678  -28.5066 H         1 <0>         0.3000 
@<TRIPOS>BOND
     1    1   23 1    
     2    1    7 1    
     3    1   25 1    
     4    1   24 1    
     5    2   26 1    
     6    2    8 1    
     7    2   27 1    
     8    2   28 1    
     9    3   29 1    
    10    3    9 ar   
    11    3    4 ar   
    12    4   30 1    
    13    4   10 ar   
    14    5    9 ar   
    15    5   31 1    
    16    5   11 ar   
    17    6   32 1    
    18    6   14 2    
    19    6   12 1    
    20    7   12 ar   
    21    7   13 ar   
    22    8   18 ar   
    23    8   13 ar   
    24    9   22 1    
    25   10   11 ar   
    26   10   19 1    
    27   11   14 1    
    28   12   18 ar   
    29   13   16 1    
    30   14   15 1    
    31   15   19 am   BACKBONE|DICT|INTERRES
    32   15   20 2    
    33   16   21 2    
    34   16   17 am   BACKBONE|DICT|INTERRES
    35   17   33 1    
    36   17   34 1    
    37   18   35 1    
    38   19   36 1    
@<TRIPOS>SUBSTRUCTURE
     1 <0>         1 GROUP             0       ****    0 ROOT    
