@<TRIPOS>MOLECULE
kith-ligand
31   32    1
SMALL
USER_CHARGES


@<TRIPOS>ATOM
      1 C1         -6.3171    6.6161   36.8766 C.3       1 <0>        -0.1400 
      2 C2         -8.5755    5.6805   36.2572 C.ar      1 <0>         0.0800 
      3 C3        -11.1656    6.1353   34.7054 C.3       1 <0>        -0.1200 
      4 C4         -9.9583    3.9544   32.1054 C.3       1 <0>         0.1450 
      5 C5         -7.6312    5.9247   37.2015 C.ar      1 <0>        -0.0700 
      6 C6         -7.8614    5.4707   38.5753 C.ar      1 <0>         0.4500 
      7 C7         -9.9924    4.4769   37.7867 C.ar      1 <0>         0.5000 
      8 C8        -11.5351    5.6229   33.3241 C.3       1 <0>         0.2050 
      9 C9        -10.8082    4.8397   35.4233 C.3       1 <0>         0.5100 
     10 C10       -10.9755    4.1826   33.2430 C.3       1 <0>         0.1700 
     11 N1         -9.0318    4.7372   38.7627 N.pl3     1 <0>        -0.5100 
     12 N2         -9.7787    5.0384   36.5146 N.pl3     1 <0>        -0.6000 
     13 O1        -10.5393    4.0772   30.8219 O.3       1 <0>        -0.6550 
     14 O2        -12.9387    5.6769   33.2110 O.3       1 <0>        -0.6550 
     15 O3         -7.1177    5.6765   39.5326 O.2       1 <0>        -0.4200 
     16 O4        -10.9839    3.8039   38.0606 O.2       1 <0>        -0.4000 
     17 O5        -10.2816    3.9799   34.4728 O.3       1 <0>        -0.4000 
     18 H1         -5.4883    5.9134   36.9650 H         1 <0>         0.0800 
     19 H2         -6.3151    7.0092   35.8603 H         1 <0>         0.0800 
     20 H3         -6.1338    7.4483   37.5557 H         1 <0>         0.0800 
     21 H4         -8.3668    5.9866   35.2434 H         1 <0>         0.1000 
     22 H5        -10.3180    6.8085   34.6371 H         1 <0>         0.0600 
     23 H6        -11.9638    6.6598   35.2330 H         1 <0>         0.0600 
     24 H7         -9.5278    2.9555   32.1846 H         1 <0>         0.0600 
     25 H8         -9.1354    4.6650   32.1898 H         1 <0>         0.0600 
     26 H9        -11.1181    6.2523   32.5440 H         1 <0>         0.0600 
     27 H10       -11.7015    4.3833   35.8533 H         1 <0>         0.1000 
     28 H11       -11.7862    3.4543   33.1832 H         1 <0>         0.0300 
     29 H12        -9.1621    4.3415   39.6900 H         1 <0>         0.3600 
     30 H13       -10.7167    3.1999   30.4815 H         1 <0>         0.3900 
     31 H14       -13.1623    6.6042   33.1630 H         1 <0>         0.3900 
@<TRIPOS>BOND
     1    1    5 1    
     2    1   18 1    
     3    1   19 1    
     4    1   20 1    
     5    2    5 ar   
     6    2   12 ar   
     7    2   21 1    
     8    3    8 1    
     9    3    9 1    
    10    3   22 1    
    11    3   23 1    
    12    4   10 1    
    13    4   13 1    
    14    4   24 1    
    15    4   25 1    
    16    5    6 ar   
    17    6   11 ar   
    18    6   15 2    
    19    7   11 ar   
    20    7   12 ar   
    21    7   16 2    
    22    8   10 1    
    23    8   14 1    
    24    8   26 1    
    25    9   12 1    
    26    9   17 1    
    27    9   27 1    
    28   10   17 1    
    29   10   28 1    
    30   11   29 1    
    31   13   30 1    
    32   14   31 1    
@<TRIPOS>SUBSTRUCTURE
     1 <0>         1 GROUP             0       ****    0 ROOT    
@<TRIPOS>MOLECULE
kith-ligand
31   32    1
SMALL
USER_CHARGES


@<TRIPOS>ATOM
      1 C1         -6.3057    6.7622   36.9812 C.3       1 <0>        -0.1400 
      2 C2         -8.4811    5.7106   36.2642 C.ar      1 <0>         0.0800 
      3 C3        -11.4264    5.9861   35.0279 C.3       1 <0>        -0.1200 
      4 C4        -10.1411    4.7878   31.7678 C.3       1 <0>         0.1450 
      5 C5         -7.5842    5.9843   37.2461 C.ar      1 <0>        -0.0700 
      6 C6         -7.8388    5.4940   38.6032 C.ar      1 <0>         0.4500 
      7 C7         -9.9258    4.4766   37.7498 C.ar      1 <0>         0.5000 
      8 C8        -11.6792    5.8030   33.5385 C.3       1 <0>         0.2050 
      9 C9        -10.6139    4.7439   35.3443 C.3       1 <0>         0.5100 
     10 C10       -10.8534    4.5671   33.1133 C.3       1 <0>         0.1700 
     11 N1         -9.0068    4.7524   38.7616 N.pl3     1 <0>        -0.5100 
     12 N2         -9.6403    4.9820   36.4681 N.pl3     1 <0>        -0.6000 
     13 O1         -9.3625    3.6772   31.3619 O.3       1 <0>        -0.6550 
     14 O2        -13.0573    5.6761   33.2800 O.3       1 <0>        -0.6550 
     15 O3         -7.1177    5.6765   39.5758 O.2       1 <0>        -0.4200 
     16 O4        -10.9414    3.8280   37.9904 O.2       1 <0>        -0.4000 
     17 O5         -9.9179    4.4444   34.1825 O.3       1 <0>        -0.4000 
     18 H1         -5.4408    6.1001   37.0457 H         1 <0>         0.0800 
     19 H2         -6.3177    7.2077   35.9851 H         1 <0>         0.0800 
     20 H3         -6.1722    7.5665   37.7052 H         1 <0>         0.0800 
     21 H4         -8.2820    6.0753   35.2678 H         1 <0>         0.1000 
     22 H5        -10.8209    6.8771   35.1974 H         1 <0>         0.0600 
     23 H6        -12.3178    6.0377   35.6528 H         1 <0>         0.0600 
     24 H7         -9.5162    5.6760   31.8202 H         1 <0>         0.0600 
     25 H8        -10.8805    4.9795   30.9896 H         1 <0>         0.0600 
     26 H9        -11.3391    6.6940   33.0216 H         1 <0>         0.0600 
     27 H10       -11.2421    3.8919   35.6048 H         1 <0>         0.1000 
     28 H11       -11.4783    3.6715   33.0822 H         1 <0>         0.0300 
     29 H12        -9.1548    4.3617   39.6868 H         1 <0>         0.3600 
     30 H13        -9.9178    2.9288   31.1618 H         1 <0>         0.3900 
     31 H14       -13.3823    6.5661   33.1627 H         1 <0>         0.3900 
@<TRIPOS>BOND
     1    1    5 1    
     2    1   18 1    
     3    1   19 1    
     4    1   20 1    
     5    2    5 ar   
     6    2   12 ar   
     7    2   21 1    
     8    3    8 1    
     9    3    9 1    
    10    3   22 1    
    11    3   23 1    
    12    4   10 1    
    13    4   13 1    
    14    4   24 1    
    15    4   25 1    
    16    5    6 ar   
    17    6   11 ar   
    18    6   15 2    
    19    7   11 ar   
    20    7   12 ar   
    21    7   16 2    
    22    8   10 1    
    23    8   14 1    
    24    8   26 1    
    25    9   12 1    
    26    9   17 1    
    27    9   27 1    
    28   10   17 1    
    29   10   28 1    
    30   11   29 1    
    31   13   30 1    
    32   14   31 1    
@<TRIPOS>SUBSTRUCTURE
     1 <0>         1 GROUP             0       ****    0 ROOT    
@<TRIPOS>MOLECULE
kith-ligand
31   32    1
SMALL
USER_CHARGES


@<TRIPOS>ATOM
      1 C1         -6.3216    6.5667   36.8219 C.3       1 <0>        -0.1400 
      2 C2         -8.5721    5.6030   36.2141 C.ar      1 <0>         0.0800 
      3 C3        -11.2683    5.9172   34.6767 C.3       1 <0>        -0.1200 
      4 C4         -9.9055    4.0508   31.9731 C.3       1 <0>         0.1450 
      5 C5         -7.6350    5.8790   37.1584 C.ar      1 <0>        -0.0700 
      6 C6         -7.8707    5.4646   38.5459 C.ar      1 <0>         0.4500 
      7 C7        -10.0105    4.4760   37.7840 C.ar      1 <0>         0.5000 
      8 C8        -11.7113    5.3417   33.3381 C.3       1 <0>         0.2050 
      9 C9        -10.7582    4.6637   35.3691 C.3       1 <0>         0.5100 
     10 C10       -10.8796    4.0418   33.1707 C.3       1 <0>         0.1700 
     11 N1         -9.0554    4.7644   38.7612 N.pl3     1 <0>        -0.5100 
     12 N2         -9.7670    4.9507   36.4792 N.pl3     1 <0>        -0.6000 
     13 O1        -10.5858    4.0768   30.7359 O.3       1 <0>        -0.6550 
     14 O2        -13.0949    5.0370   33.4007 O.3       1 <0>        -0.6550 
     15 O3         -7.1181    5.6730   39.4952 O.2       1 <0>        -0.4200 
     16 O4        -11.0200    3.8415   38.0814 O.2       1 <0>        -0.4000 
     17 O5        -10.1284    3.9170   34.3824 O.3       1 <0>        -0.4000 
     18 H1         -5.4929    5.8645   36.9139 H         1 <0>         0.0800 
     19 H2         -6.3219    6.9504   35.8017 H         1 <0>         0.0800 
     20 H3         -6.1359    7.4046   37.4941 H         1 <0>         0.0800 
     21 H4         -8.3704    5.8904   35.1929 H         1 <0>         0.1000 
     22 H5        -10.4544    6.6252   34.5284 H         1 <0>         0.0600 
     23 H6        -12.0566    6.4035   35.2543 H         1 <0>         0.0600 
     24 H7         -9.2814    3.1573   31.9631 H         1 <0>         0.0600 
     25 H8         -9.2380    4.9095   32.0375 H         1 <0>         0.0600 
     26 H9        -11.5429    6.0577   32.5324 H         1 <0>         0.0600 
     27 H10       -11.5844    4.0802   35.7765 H         1 <0>         0.1000 
     28 H11       -11.5333    3.1708   33.0942 H         1 <0>         0.0300 
     29 H12        -9.1898    4.4040   39.7016 H         1 <0>         0.3600 
     30 H13       -10.7167    3.1767   30.4336 H         1 <0>         0.3900 
     31 H14       -13.1941    4.0986   33.4784 H         1 <0>         0.3900 
@<TRIPOS>BOND
     1    1    5 1    
     2    1   18 1    
     3    1   19 1    
     4    1   20 1    
     5    2    5 ar   
     6    2   12 ar   
     7    2   21 1    
     8    3    8 1    
     9    3    9 1    
    10    3   22 1    
    11    3   23 1    
    12    4   10 1    
    13    4   13 1    
    14    4   24 1    
    15    4   25 1    
    16    5    6 ar   
    17    6   11 ar   
    18    6   15 2    
    19    7   11 ar   
    20    7   12 ar   
    21    7   16 2    
    22    8   10 1    
    23    8   14 1    
    24    8   26 1    
    25    9   12 1    
    26    9   17 1    
    27    9   27 1    
    28   10   17 1    
    29   10   28 1    
    30   11   29 1    
    31   13   30 1    
    32   14   31 1    
@<TRIPOS>SUBSTRUCTURE
     1 <0>         1 GROUP             0       ****    0 ROOT    
@<TRIPOS>MOLECULE
kith-ligand
31   32    1
SMALL
USER_CHARGES


@<TRIPOS>ATOM
      1 C1         -6.4304    6.5813   36.7230 C.3       1 <0>        -0.1400 
      2 C2         -8.7025    5.6175   36.1945 C.ar      1 <0>         0.0800 
      3 C3        -11.4336    5.9159   34.7270 C.3       1 <0>        -0.1200 
      4 C4        -10.0075    4.0250   32.0494 C.3       1 <0>         0.1450 
      5 C5         -7.7297    5.8883   37.1034 C.ar      1 <0>        -0.0700 
      6 C6         -7.9123    5.4695   38.4976 C.ar      1 <0>         0.4500 
      7 C7        -10.0759    4.4766   37.8108 C.ar      1 <0>         0.5000 
      8 C8        -11.8159    5.3625   33.3612 C.3       1 <0>         0.2050 
      9 C9        -10.9079    4.6638   35.4199 C.3       1 <0>         0.5100 
     10 C10       -11.0160    4.0442   33.2159 C.3       1 <0>         0.1700 
     11 N1         -9.0870    4.7639   38.7550 N.pl3     1 <0>        -0.5100 
     12 N2         -9.8860    4.9630   36.5015 N.pl3     1 <0>        -0.6000 
     13 O1        -10.6402    4.0769   30.7868 O.3       1 <0>        -0.6550 
     14 O2        -13.2043    5.0873   33.3485 O.3       1 <0>        -0.6550 
     15 O3         -7.1209    5.6769   39.4157 O.2       1 <0>        -0.4200 
     16 O4        -11.0698    3.8336   38.1396 O.2       1 <0>        -0.4000 
     17 O5        -10.2913    3.8998   34.4376 O.3       1 <0>        -0.4000 
     18 H1         -5.5815    5.9172   36.8925 H         1 <0>         0.0800 
     19 H2         -6.4212    6.8733   35.6721 H         1 <0>         0.0800 
     20 H3         -6.2840    7.4814   37.3206 H         1 <0>         0.0800 
     21 H4         -8.5386    5.9085   35.1677 H         1 <0>         0.1000 
     22 H5        -10.6438    6.6582   34.6216 H         1 <0>         0.0600 
     23 H6        -12.2631    6.3601   35.2823 H         1 <0>         0.0600 
     24 H7         -9.4273    3.1039   32.0714 H         1 <0>         0.0600 
     25 H8         -9.3073    4.8561   32.1380 H         1 <0>         0.0600 
     26 H9        -11.5908    6.0801   32.5711 H         1 <0>         0.0600 
     27 H10       -11.7255    4.0850   35.8515 H         1 <0>         0.1000 
     28 H11       -11.6903    3.1898   33.1281 H         1 <0>         0.0300 
     29 H12        -9.1872    4.3980   39.6977 H         1 <0>         0.3600 
     30 H13       -10.7208    3.1843   30.4461 H         1 <0>         0.3900 
     31 H14       -13.4342    4.7736   32.4859 H         1 <0>         0.3900 
@<TRIPOS>BOND
     1    1    5 1    
     2    1   18 1    
     3    1   19 1    
     4    1   20 1    
     5    2    5 ar   
     6    2   12 ar   
     7    2   21 1    
     8    3    8 1    
     9    3    9 1    
    10    3   22 1    
    11    3   23 1    
    12    4   10 1    
    13    4   13 1    
    14    4   24 1    
    15    4   25 1    
    16    5    6 ar   
    17    6   11 ar   
    18    6   15 2    
    19    7   11 ar   
    20    7   12 ar   
    21    7   16 2    
    22    8   10 1    
    23    8   14 1    
    24    8   26 1    
    25    9   12 1    
    26    9   17 1    
    27    9   27 1    
    28   10   17 1    
    29   10   28 1    
    30   11   29 1    
    31   13   30 1    
    32   14   31 1    
@<TRIPOS>SUBSTRUCTURE
     1 <0>         1 GROUP             0       ****    0 ROOT    
