@<TRIPOS>MOLECULE
kpcb-ligand
62   66    1
SMALL
USER_CHARGES


@<TRIPOS>ATOM
      1 C1         39.3734   55.6670   39.4688 C.3       1 <0>        -0.0650 
      2 C2         38.6644   53.7010   35.3667 C.3       1 <0>        -0.0650 
      3 C3         43.4035   54.3824   32.0276 C.3       1 <0>         0.0900 
      4 C4         42.9529   53.3691   34.2426 C.3       1 <0>         0.0900 
      5 C5         40.5764   57.7118   33.7815 C.ar      1 <0>        -0.2222 
      6 C6         35.2105   57.2743   31.7195 C.ar      1 <0>        -0.2222 
      7 C7         41.8913   57.4832   34.2204 C.ar      1 <0>        -0.0888 
      8 C8         35.9143   56.5952   30.7093 C.ar      1 <0>        -0.0888 
      9 C9         39.4895   57.4746   34.6466 C.ar      1 <0>        -0.2243 
     10 C10        35.4912   57.0117   33.0731 C.ar      1 <0>        -0.2243 
     11 C11        42.1170   57.0349   35.5323 C.ar      1 <0>        -0.3541 
     12 C12        36.9023   55.6563   31.0514 C.ar      1 <0>        -0.3541 
     13 C13        40.4073   54.0705   32.4772 C.3       1 <0>        -0.1200 
     14 C14        38.9563   53.5812   32.3505 C.3       1 <0>         0.0025 
     15 C15        41.4141   52.9165   32.3381 C.3       1 <0>         0.1500 
     16 C16        39.6480   56.1869   38.0988 C.ar      1 <0>        -0.0293 
     17 C17        37.8912   54.5660   34.4162 C.ar      1 <0>        -0.0293 
     18 C18        39.6707   56.9720   35.9586 C.ar      1 <0>         0.1233 
     19 C19        36.4544   56.0434   33.4469 C.ar      1 <0>         0.1233 
     20 C20        41.0220   56.7867   36.3791 C.ar      1 <0>         0.2860 
     21 C21        37.1562   55.3669   32.4070 C.ar      1 <0>         0.2860 
     22 C22        38.8242   56.5512   37.0564 C.ar      1 <0>        -0.1190 
     23 C23        36.9663   55.5418   34.6846 C.ar      1 <0>        -0.1190 
     24 C24        37.3369   56.4208   37.0425 C.2       1 <0>         0.0000 
     25 C25        36.5547   56.0416   36.0074 C.2       1 <0>         0.0000 
     26 C26        36.4357   56.7920   38.1227 C.2       1 <0>         0.5705 
     27 C27        35.1747   56.0841   36.4391 C.2       1 <0>         0.5705 
     28 N1         40.9576   56.3412   37.6814 N.pl3     1 <0>        -0.4786 
     29 N2         35.2035   56.5274   37.6901 N.am      1 <0>        -0.4817 
     30 N3         38.0329   54.4767   33.0279 N.pl3     1 <0>        -0.2434 
     31 N4         42.7868   53.2659   32.7751 N.4       1 <0>        -0.1000 
     32 O1         36.6930   57.2659   39.2270 O.2       1 <0>        -0.5080 
     33 O2         34.1614   55.8073   35.8019 O.2       1 <0>        -0.5080 
     34 H1         39.4910   56.4610   40.2063 H         1 <0>         0.0600 
     35 H2         38.3660   55.2659   39.5568 H         1 <0>         0.0600 
     36 H3         40.0650   54.8659   39.7295 H         1 <0>         0.0600 
     37 H4         38.2912   53.8095   36.3808 H         1 <0>         0.0600 
     38 H5         38.5879   52.6466   35.1031 H         1 <0>         0.0600 
     39 H6         39.7183   53.9717   35.3923 H         1 <0>         0.0600 
     40 H7         42.9360   55.3356   32.2763 H         1 <0>         0.0600 
     41 H8         43.3115   54.2228   30.9527 H         1 <0>         0.0600 
     42 H9         44.4660   54.4524   32.2626 H         1 <0>         0.0600 
     43 H10        42.4506   54.2467   34.6484 H         1 <0>         0.0600 
     44 H11        42.5550   52.4828   34.7393 H         1 <0>         0.0600 
     45 H12        44.0108   53.4357   34.4987 H         1 <0>         0.0600 
     46 H13        40.3969   58.0705   32.7782 H         1 <0>         0.1489 
     47 H14        34.4562   58.0013   31.4549 H         1 <0>         0.1489 
     48 H15        42.7270   57.6659   33.5616 H         1 <0>         0.1359 
     49 H16        35.7010   56.7955   29.6704 H         1 <0>         0.1359 
     50 H17        38.4923   57.6659   34.2875 H         1 <0>         0.1699 
     51 H18        34.9497   57.5473   33.8382 H         1 <0>         0.1699 
     52 H19        43.1262   56.8823   35.8855 H         1 <0>         0.1796 
     53 H20        37.4442   55.1421   30.2708 H         1 <0>         0.1796 
     54 H21        40.5494   54.5632   33.4362 H         1 <0>         0.0600 
     55 H22        40.5960   54.8398   31.7273 H         1 <0>         0.0600 
     56 H23        38.6913   53.4870   31.2991 H         1 <0>         0.0600 
     57 H24        38.8334   52.5863   32.7796 H         1 <0>         0.0600 
     58 H25        41.4429   52.5755   31.3022 H         1 <0>         0.0600 
     59 H26        41.0865   52.0558   32.9229 H         1 <0>         0.0600 
     60 H27        41.7488   56.1137   38.2664 H         1 <0>         0.3577 
     61 H28        34.3642   56.7019   38.2312 H         1 <0>         0.3567 
     62 H29        43.3278   52.4225   32.5227 H         1 <0>         0.2900 
@<TRIPOS>BOND
     1    1   16 1    
     2    1   34 1    
     3    1   35 1    
     4    1   36 1    
     5    2   17 1    
     6    2   37 1    
     7    2   38 1    
     8    2   39 1    
     9    3   31 1    
    10    3   40 1    
    11    3   41 1    
    12    3   42 1    
    13    4   31 1    
    14    4   43 1    
    15    4   44 1    
    16    4   45 1    
    17    5    7 ar   
    18    5    9 ar   
    19    5   46 1    
    20    6    8 ar   
    21    6   10 ar   
    22    6   47 1    
    23    7   11 ar   
    24    7   48 1    
    25    8   12 ar   
    26    8   49 1    
    27    9   18 ar   
    28    9   50 1    
    29   10   19 ar   
    30   10   51 1    
    31   11   20 ar   
    32   11   52 1    
    33   12   21 ar   
    34   12   53 1    
    35   13   14 1    
    36   13   15 1    
    37   13   54 1    
    38   13   55 1    
    39   14   30 1    
    40   14   56 1    
    41   14   57 1    
    42   15   31 1    
    43   15   58 1    
    44   15   59 1    
    45   16   22 ar   
    46   16   28 ar   
    47   17   23 ar   
    48   17   30 ar   
    49   18   20 ar   
    50   18   22 ar   
    51   19   21 ar   
    52   19   23 ar   
    53   20   28 ar   
    54   21   30 ar   
    55   22   24 1    
    56   23   25 1    
    57   24   25 2    
    58   24   26 1    
    59   25   27 1    
    60   26   29 am   BACKBONE|DICT|INTERRES
    61   26   32 2    
    62   27   29 am   BACKBONE|DICT|INTERRES
    63   27   33 2    
    64   28   60 1    
    65   29   61 1    
    66   31   62 1    
@<TRIPOS>SUBSTRUCTURE
     1 <0>         1 GROUP             0       ****    0 ROOT    
@<TRIPOS>MOLECULE
kpcb-ligand
62   66    1
SMALL
USER_CHARGES


@<TRIPOS>ATOM
      1 C1         38.7160   53.6254   35.3272 C.3       1 <0>        -0.0650 
      2 C2         39.3547   55.6663   39.4900 C.3       1 <0>        -0.0650 
      3 C3         43.0976   52.1574   35.7089 C.3       1 <0>         0.0900 
      4 C4         44.7428   53.9555   35.7006 C.3       1 <0>         0.0900 
      5 C5         35.2355   57.2209   31.7208 C.ar      1 <0>        -0.2222 
      6 C6         40.5052   57.8116   33.8302 C.ar      1 <0>        -0.2222 
      7 C7         35.8899   56.4844   30.7152 C.ar      1 <0>        -0.0888 
      8 C8         41.8297   57.6662   34.2694 C.ar      1 <0>        -0.0888 
      9 C9         35.5305   56.9845   33.0779 C.ar      1 <0>        -0.2243 
     10 C10        39.4399   57.5220   34.7022 C.ar      1 <0>        -0.2243 
     11 C11        36.8502   55.5209   31.0675 C.ar      1 <0>        -0.3541 
     12 C12        42.0812   57.2657   35.5894 C.ar      1 <0>        -0.3541 
     13 C13        43.2297   55.2681   37.9733 C.3       1 <0>        -0.1200 
     14 C14        42.1898   56.2444   38.5749 C.3       1 <0>         0.0025 
     15 C15        42.6582   54.1530   37.0662 C.3       1 <0>         0.1500 
     16 C16        37.9034   54.5044   34.4347 C.ar      1 <0>        -0.0293 
     17 C17        39.6728   56.2235   38.1397 C.ar      1 <0>        -0.0293 
     18 C18        36.4699   55.9959   33.4628 C.ar      1 <0>         0.1233 
     19 C19        39.6558   57.0319   36.0136 C.ar      1 <0>         0.1233 
     20 C20        37.1232   55.2740   32.4230 C.ar      1 <0>         0.2860 
     21 C21        41.0112   56.9357   36.4442 C.ar      1 <0>         0.2860 
     22 C22        36.9944   55.4991   34.7060 C.ar      1 <0>        -0.1190 
     23 C23        38.8369   56.5659   37.0976 C.ar      1 <0>        -0.1190 
     24 C24        36.5841   56.0105   36.0277 C.2       1 <0>         0.0000 
     25 C25        37.3553   56.4005   37.0684 C.2       1 <0>         0.0000 
     26 C26        35.1999   56.0650   36.4429 C.2       1 <0>         0.5705 
     27 C27        36.4431   56.7803   38.1346 C.2       1 <0>         0.5705 
     28 N1         37.9771   54.3860   33.0541 N.pl3     1 <0>        -0.4786 
     29 N2         35.2157   56.5180   37.6912 N.am      1 <0>        -0.4817 
     30 N3         40.9963   56.4598   37.7516 N.pl3     1 <0>        -0.2434 
     31 N4         43.6941   53.2660   36.4889 N.4       1 <0>        -0.1000 
     32 O1         34.1915   55.7837   35.7979 O.2       1 <0>        -0.5080 
     33 O2         36.6917   57.2656   39.2362 O.2       1 <0>        -0.5080 
     34 H1         38.6851   53.9672   36.3593 H         1 <0>         0.0600 
     35 H2         38.3443   52.6010   35.3081 H         1 <0>         0.0600 
     36 H3         39.7602   53.6147   35.0167 H         1 <0>         0.0600 
     37 H4         38.3399   55.2829   39.5523 H         1 <0>         0.0600 
     38 H5         39.9955   54.8186   39.7305 H         1 <0>         0.0600 
     39 H6         39.4913   56.4240   40.2621 H         1 <0>         0.0600 
     40 H7         42.6666   52.5170   34.7747 H         1 <0>         0.0600 
     41 H8         42.3056   51.6620   36.2670 H         1 <0>         0.0600 
     42 H9         43.8501   51.4063   35.4628 H         1 <0>         0.0600 
     43 H10        44.3005   54.5792   34.9222 H         1 <0>         0.0600 
     44 H11        45.3761   54.5757   36.3359 H         1 <0>         0.0600 
     45 H12        45.3992   53.2287   35.2198 H         1 <0>         0.0600 
     46 H13        34.5024   57.9671   31.4504 H         1 <0>         0.1489 
     47 H14        40.3015   58.1532   32.8250 H         1 <0>         0.1489 
     48 H15        35.6591   56.6594   29.6742 H         1 <0>         0.1359 
     49 H16        42.6572   57.8958   33.6154 H         1 <0>         0.1359 
     50 H17        35.0228   57.5597   33.8382 H         1 <0>         0.1699 
     51 H18        38.4335   57.6604   34.3461 H         1 <0>         0.1699 
     52 H19        37.3576   54.9561   30.2976 H         1 <0>         0.1796 
     53 H20        43.1020   57.2119   35.9288 H         1 <0>         0.1796 
     54 H21        43.8070   54.8194   38.7833 H         1 <0>         0.0600 
     55 H22        43.9455   55.8679   37.4153 H         1 <0>         0.0600 
     56 H23        41.9057   55.8827   39.5615 H         1 <0>         0.0600 
     57 H24        42.6561   57.2157   38.7497 H         1 <0>         0.0600 
     58 H25        42.0878   54.5603   36.2327 H         1 <0>         0.0600 
     59 H26        41.9626   53.5497   37.6531 H         1 <0>         0.0600 
     60 H27        38.5755   53.7161   32.5902 H         1 <0>         0.3577 
     61 H28        34.3709   56.6975   38.2239 H         1 <0>         0.3567 
     62 H29        44.1692   52.8028   37.2721 H         1 <0>         0.2900 
@<TRIPOS>BOND
     1    1   16 1    
     2    1   34 1    
     3    1   35 1    
     4    1   36 1    
     5    2   17 1    
     6    2   37 1    
     7    2   38 1    
     8    2   39 1    
     9    3   31 1    
    10    3   40 1    
    11    3   41 1    
    12    3   42 1    
    13    4   31 1    
    14    4   43 1    
    15    4   44 1    
    16    4   45 1    
    17    5    7 ar   
    18    5    9 ar   
    19    5   46 1    
    20    6    8 ar   
    21    6   10 ar   
    22    6   47 1    
    23    7   11 ar   
    24    7   48 1    
    25    8   12 ar   
    26    8   49 1    
    27    9   18 ar   
    28    9   50 1    
    29   10   19 ar   
    30   10   51 1    
    31   11   20 ar   
    32   11   52 1    
    33   12   21 ar   
    34   12   53 1    
    35   13   14 1    
    36   13   15 1    
    37   13   54 1    
    38   13   55 1    
    39   14   30 1    
    40   14   56 1    
    41   14   57 1    
    42   15   31 1    
    43   15   58 1    
    44   15   59 1    
    45   16   22 ar   
    46   16   28 ar   
    47   17   23 ar   
    48   17   30 ar   
    49   18   20 ar   
    50   18   22 ar   
    51   19   21 ar   
    52   19   23 ar   
    53   20   28 ar   
    54   21   30 ar   
    55   22   24 1    
    56   23   25 1    
    57   24   25 2    
    58   24   26 1    
    59   25   27 1    
    60   26   29 am   BACKBONE|DICT|INTERRES
    61   26   32 2    
    62   27   29 am   BACKBONE|DICT|INTERRES
    63   27   33 2    
    64   28   60 1    
    65   29   61 1    
    66   31   62 1    
@<TRIPOS>SUBSTRUCTURE
     1 <0>         1 GROUP             0       ****    0 ROOT    
@<TRIPOS>MOLECULE
kpcb-ligand
62   66    1
SMALL
USER_CHARGES


@<TRIPOS>ATOM
      1 C1         39.3619   57.6544   34.5919 C.3       1 <0>        -0.0650 
      2 C2         38.7149   53.7088   35.3292 C.3       1 <0>        -0.0650 
      3 C3         43.4097   54.3678   31.9958 C.3       1 <0>         0.0900 
      4 C4         42.9479   53.3938   34.2271 C.3       1 <0>         0.0900 
      5 C5         40.7848   55.4828   40.1723 C.ar      1 <0>        -0.2222 
      6 C6         35.2008   57.2647   31.7238 C.ar      1 <0>        -0.2222 
      7 C7         42.0795   55.7990   39.7223 C.ar      1 <0>        -0.0888 
      8 C8         35.8912   56.5851   30.7045 C.ar      1 <0>        -0.0888 
      9 C9         39.6681   55.7130   39.3444 C.ar      1 <0>        -0.2243 
     10 C10        35.4956   56.9979   33.0743 C.ar      1 <0>        -0.2243 
     11 C11        42.2541   56.3481   38.4399 C.ar      1 <0>        -0.3541 
     12 C12        36.8788   55.6415   31.0338 C.ar      1 <0>        -0.3541 
     13 C13        40.4101   54.0611   32.4367 C.3       1 <0>        -0.1200 
     14 C14        38.9581   53.5753   32.3040 C.3       1 <0>         0.0025 
     15 C15        41.4179   52.9061   32.3221 C.3       1 <0>         0.1500 
     16 C16        39.6870   57.1175   35.9419 C.ar      1 <0>        -0.0293 
     17 C17        37.9196   54.5590   34.3845 C.ar      1 <0>        -0.0293 
     18 C18        39.8033   56.2671   38.0506 C.ar      1 <0>         0.1233 
     19 C19        36.4631   56.0291   33.4353 C.ar      1 <0>         0.1233 
     20 C20        41.1300   56.5725   37.6246 C.ar      1 <0>         0.2860 
     21 C21        37.1503   55.3522   32.3858 C.ar      1 <0>         0.2860 
     22 C22        38.9136   56.6215   36.9714 C.ar      1 <0>        -0.1190 
     23 C23        36.9975   55.5315   34.6655 C.ar      1 <0>        -0.1190 
     24 C24        37.4339   56.4342   37.0017 C.2       1 <0>         0.0000 
     25 C25        36.6225   56.0349   35.9972 C.2       1 <0>         0.0000 
     26 C26        36.5681   56.7907   38.1155 C.2       1 <0>         0.5705 
     27 C27        35.2586   56.0657   36.4747 C.2       1 <0>         0.5705 
     28 N1         41.0097   57.0796   36.3482 N.pl3     1 <0>        -0.4786 
     29 N2         35.3244   56.5137   37.7231 N.am      1 <0>        -0.4817 
     30 N3         38.0389   54.4652   32.9944 N.pl3     1 <0>        -0.2434 
     31 N4         42.7877   53.2659   32.7606 N.4       1 <0>        -0.1000 
     32 O1         36.8621   57.2658   39.2101 O.2       1 <0>        -0.5080 
     33 O2         34.2287   55.7748   35.8722 O.2       1 <0>        -0.5080 
     34 H1         38.2926   57.7735   34.4683 H         1 <0>         0.0600 
     35 H2         39.8315   58.6256   34.4396 H         1 <0>         0.0600 
     36 H3         39.7151   56.9822   33.8102 H         1 <0>         0.0600 
     37 H4         38.2901   53.7431   36.3277 H         1 <0>         0.0600 
     38 H5         38.7293   52.6643   35.0204 H         1 <0>         0.0600 
     39 H6         39.7427   54.0577   35.4125 H         1 <0>         0.0600 
     40 H7         42.9468   55.3275   32.2281 H         1 <0>         0.0600 
     41 H8         43.3185   54.1908   30.9235 H         1 <0>         0.0600 
     42 H9         44.4724   54.4364   32.2309 H         1 <0>         0.0600 
     43 H10        42.4534   54.2844   34.6155 H         1 <0>         0.0600 
     44 H11        42.5397   52.5205   34.7386 H         1 <0>         0.0600 
     45 H12        44.0054   53.4537   34.4868 H         1 <0>         0.0600 
     46 H13        40.6392   55.0586   41.1553 H         1 <0>         0.1489 
     47 H14        34.4455   57.9943   31.4691 H         1 <0>         0.1489 
     48 H15        42.9350   55.6158   40.3565 H         1 <0>         0.1359 
     49 H16        35.6666   56.7885   29.6686 H         1 <0>         0.1359 
     50 H17        38.6890   55.4516   39.7173 H         1 <0>         0.1699 
     51 H18        34.9652   57.5330   33.8476 H         1 <0>         0.1699 
     52 H19        43.2448   56.5877   38.0832 H         1 <0>         0.1796 
     53 H20        37.4099   55.1276   30.2457 H         1 <0>         0.1796 
     54 H21        40.5464   54.5629   33.3917 H         1 <0>         0.0600 
     55 H22        40.6067   54.8204   31.6788 H         1 <0>         0.0600 
     56 H23        38.6913   53.4970   31.2515 H         1 <0>         0.0600 
     57 H24        38.8321   52.5747   32.7189 H         1 <0>         0.0600 
     58 H25        41.4527   52.5472   31.2924 H         1 <0>         0.0600 
     59 H26        41.0873   52.0557   32.9204 H         1 <0>         0.0600 
     60 H27        41.7747   57.3989   35.7712 H         1 <0>         0.3577 
     61 H28        34.4988   56.6765   38.2877 H         1 <0>         0.3567 
     62 H29        43.3302   52.4189   32.5225 H         1 <0>         0.2900 
@<TRIPOS>BOND
     1    1   16 1    
     2    1   34 1    
     3    1   35 1    
     4    1   36 1    
     5    2   17 1    
     6    2   37 1    
     7    2   38 1    
     8    2   39 1    
     9    3   31 1    
    10    3   40 1    
    11    3   41 1    
    12    3   42 1    
    13    4   31 1    
    14    4   43 1    
    15    4   44 1    
    16    4   45 1    
    17    5    7 ar   
    18    5    9 ar   
    19    5   46 1    
    20    6    8 ar   
    21    6   10 ar   
    22    6   47 1    
    23    7   11 ar   
    24    7   48 1    
    25    8   12 ar   
    26    8   49 1    
    27    9   18 ar   
    28    9   50 1    
    29   10   19 ar   
    30   10   51 1    
    31   11   20 ar   
    32   11   52 1    
    33   12   21 ar   
    34   12   53 1    
    35   13   14 1    
    36   13   15 1    
    37   13   54 1    
    38   13   55 1    
    39   14   30 1    
    40   14   56 1    
    41   14   57 1    
    42   15   31 1    
    43   15   58 1    
    44   15   59 1    
    45   16   22 ar   
    46   16   28 ar   
    47   17   23 ar   
    48   17   30 ar   
    49   18   20 ar   
    50   18   22 ar   
    51   19   21 ar   
    52   19   23 ar   
    53   20   28 ar   
    54   21   30 ar   
    55   22   24 1    
    56   23   25 1    
    57   24   25 2    
    58   24   26 1    
    59   25   27 1    
    60   26   29 am   BACKBONE|DICT|INTERRES
    61   26   32 2    
    62   27   29 am   BACKBONE|DICT|INTERRES
    63   27   33 2    
    64   28   60 1    
    65   29   61 1    
    66   31   62 1    
@<TRIPOS>SUBSTRUCTURE
     1 <0>         1 GROUP             0       ****    0 ROOT    
