@<TRIPOS>MOLECULE
lck-ligand
58   62    1
SMALL
USER_CHARGES


@<TRIPOS>ATOM
      1 C1         26.8475   41.2116   86.4776 C.ar      1 <0>        -0.1150 
      2 C2         32.2639   37.9029   83.0792 C.ar      1 <0>        -0.1150 
      3 C3         26.8624   39.9178   87.0322 C.ar      1 <0>        -0.1150 
      4 C4         26.8646   41.3771   85.0793 C.ar      1 <0>        -0.1150 
      5 C5         31.6797   36.9216   82.2592 C.ar      1 <0>        -0.1150 
      6 C6         31.4538   38.6603   83.9448 C.ar      1 <0>        -0.1150 
      7 C7         26.8975   38.7912   86.1876 C.ar      1 <0>        -0.1150 
      8 C8         26.9023   40.2489   84.2360 C.ar      1 <0>        -0.1150 
      9 C9         30.2906   36.7017   82.3076 C.ar      1 <0>        -0.1150 
     10 C10        30.0633   38.4398   83.9858 C.ar      1 <0>        -0.1150 
     11 C11        23.5964   35.9911   83.3416 C.ar      1 <0>        -0.5299 
     12 C12        24.1290   35.1719   82.3379 C.ar      1 <0>         0.3615 
     13 C13        17.9931   37.8736   86.8672 C.3       1 <0>         0.1700 
     14 C14        18.1426   38.5682   84.4963 C.3       1 <0>         0.1700 
     15 C15        19.3615   37.1832   86.7258 C.3       1 <0>         0.1500 
     16 C16        19.5101   37.8621   84.3942 C.3       1 <0>         0.1500 
     17 C17        22.5348   38.2546   84.8581 C.3       1 <0>         0.0800 
     18 C18        21.5925   37.3740   85.7050 C.3       1 <0>         0.1500 
     19 C19        26.9203   38.9507   84.7874 C.ar      1 <0>         0.0000 
     20 C20        29.4556   37.4610   83.1649 C.ar      1 <0>         0.0000 
     21 C21        24.4301   36.9456   83.9695 C.ar      1 <0>         0.3493 
     22 C22        25.7962   37.0070   83.5914 C.ar      1 <0>        -0.0020 
     23 C23        26.9669   37.7914   83.9002 C.2       1 <0>        -0.2410 
     24 C24        28.0087   37.2115   83.1996 C.2       1 <0>         0.2507 
     25 C25        26.2008   36.0709   82.6078 C.ar      1 <0>         0.7367 
     26 N1         25.4203   35.1630   81.9654 N.ar      1 <0>        -0.6698 
     27 N2         17.3019   37.9911   85.5660 N.4       1 <0>        -0.2000 
     28 N3         23.9250   37.8282   84.9358 N.pl3     1 <0>        -0.7800 
     29 N4         20.1958   37.8764   85.7150 N.4       1 <0>        -0.1000 
     30 O1         27.5492   36.2105   82.3832 O.3       1 <0>        -0.3481 
     31 H1         26.8249   42.0789   87.1217 H         1 <0>         0.1150 
     32 H2         33.3298   38.0723   83.0483 H         1 <0>         0.1150 
     33 H3         26.8468   39.7872   88.1042 H         1 <0>         0.1150 
     34 H4         26.8526   42.3701   84.6522 H         1 <0>         0.1150 
     35 H5         32.2957   36.3337   81.5926 H         1 <0>         0.1150 
     36 H6         31.8998   39.4117   84.5808 H         1 <0>         0.1150 
     37 H7         26.9022   37.8012   86.6168 H         1 <0>         0.1150 
     38 H8         26.9194   40.3823   83.1650 H         1 <0>         0.1150 
     39 H9         29.8764   35.9392   81.6634 H         1 <0>         0.1150 
     40 H10        29.4803   39.0343   84.6697 H         1 <0>         0.1150 
     41 H11        22.5475   35.8924   83.5610 H         1 <0>         0.2142 
     42 H12        23.4904   34.4643   81.8311 H         1 <0>         0.0784 
     43 H13        17.3559   37.3285   87.5649 H         1 <0>         0.0600 
     44 H14        18.1167   38.8765   87.2794 H         1 <0>         0.0600 
     45 H15        17.6051   38.5188   83.5485 H         1 <0>         0.0600 
     46 H16        18.2954   39.6228   84.7232 H         1 <0>         0.0600 
     47 H17        19.8724   37.1915   87.6839 H         1 <0>         0.0600 
     48 H18        19.2387   36.1341   86.4478 H         1 <0>         0.0600 
     49 H19        19.3871   36.8324   84.0507 H         1 <0>         0.0600 
     50 H20        20.1036   38.3750   83.6378 H         1 <0>         0.0600 
     51 H21        22.2328   38.2757   83.8126 H         1 <0>         0.0600 
     52 H22        22.4878   39.2862   85.2087 H         1 <0>         0.0600 
     53 H23        21.9703   37.3693   86.7282 H         1 <0>         0.0600 
     54 H24        21.5925   36.3328   85.3851 H         1 <0>         0.0600 
     55 H25        16.9353   37.0929   85.2847 H         1 <0>         0.3100 
     56 H26        16.5213   38.6304   85.7426 H         1 <0>         0.3100 
     57 H27        24.5887   38.5164   85.2725 H         1 <0>         0.3800 
     58 H28        20.2607   38.8441   86.0038 H         1 <0>         0.2900 
@<TRIPOS>BOND
     1    1    3 ar   
     2    1    4 ar   
     3    1   31 1    
     4    2    5 ar   
     5    2    6 ar   
     6    2   32 1    
     7    3    7 ar   
     8    3   33 1    
     9    4    8 ar   
    10    4   34 1    
    11    5    9 ar   
    12    5   35 1    
    13    6   10 ar   
    14    6   36 1    
    15    7   19 ar   
    16    7   37 1    
    17    8   19 ar   
    18    8   38 1    
    19    9   20 ar   
    20    9   39 1    
    21   10   20 ar   
    22   10   40 1    
    23   11   12 ar   
    24   11   21 ar   
    25   11   41 1    
    26   12   26 ar   
    27   12   42 1    
    28   13   15 1    
    29   13   27 1    
    30   13   43 1    
    31   13   44 1    
    32   14   16 1    
    33   14   27 1    
    34   14   45 1    
    35   14   46 1    
    36   15   29 1    
    37   15   47 1    
    38   15   48 1    
    39   16   29 1    
    40   16   49 1    
    41   16   50 1    
    42   17   18 1    
    43   17   28 1    
    44   17   51 1    
    45   17   52 1    
    46   18   29 1    
    47   18   53 1    
    48   18   54 1    
    49   19   23 1    
    50   20   24 1    
    51   21   22 ar   
    52   21   28 1    
    53   22   23 1    
    54   22   25 ar   
    55   23   24 2    
    56   24   30 1    
    57   25   26 ar   
    58   25   30 1    
    59   27   55 1    
    60   27   56 1    
    61   28   57 1    
    62   29   58 1    
@<TRIPOS>SUBSTRUCTURE
     1 <0>         1 GROUP             0       ****    0 ROOT    
@<TRIPOS>MOLECULE
lck-ligand
58   62    1
SMALL
USER_CHARGES


@<TRIPOS>ATOM
      1 C1         26.8948   41.2115   86.4604 C.ar      1 <0>        -0.1150 
      2 C2         32.2323   37.7319   83.1043 C.ar      1 <0>        -0.1150 
      3 C3         26.8951   39.9193   87.0202 C.ar      1 <0>        -0.1150 
      4 C4         26.9047   41.3737   85.0618 C.ar      1 <0>        -0.1150 
      5 C5         31.6229   36.7633   82.2886 C.ar      1 <0>        -0.1150 
      6 C6         31.4389   38.5318   83.9448 C.ar      1 <0>        -0.1150 
      7 C7         26.9021   38.7901   86.1783 C.ar      1 <0>        -0.1150 
      8 C8         26.9138   40.2434   84.2221 C.ar      1 <0>        -0.1150 
      9 C9         30.2258   36.5977   82.3158 C.ar      1 <0>        -0.1150 
     10 C10        30.0406   38.3670   83.9650 C.ar      1 <0>        -0.1150 
     11 C11        23.5444   35.9912   83.4467 C.ar      1 <0>        -0.5299 
     12 C12        24.0281   35.1911   82.3949 C.ar      1 <0>         0.3615 
     13 C13        18.5026   39.1650   86.7886 C.3       1 <0>         0.1700 
     14 C14        17.9993   36.8027   86.3980 C.3       1 <0>         0.1700 
     15 C15        20.0121   38.8596   86.8058 C.3       1 <0>         0.1500 
     16 C16        19.4923   36.4613   86.5055 C.3       1 <0>         0.1500 
     17 C17        22.5464   38.1879   85.0876 C.3       1 <0>         0.0800 
     18 C18        21.7819   37.2956   86.0785 C.3       1 <0>         0.1500 
     19 C19        26.9142   38.9469   84.7762 C.ar      1 <0>         0.0000 
     20 C20        29.4081   37.3976   83.1532 C.ar      1 <0>         0.0000 
     21 C21        24.4056   36.9443   84.0432 C.ar      1 <0>         0.3493 
     22 C22        25.7530   37.0044   83.6123 C.ar      1 <0>        -0.0020 
     23 C23        26.9325   37.7864   83.8888 C.2       1 <0>        -0.2410 
     24 C24        27.9544   37.1908   83.1778 C.2       1 <0>         0.2507 
     25 C25        26.1177   36.0778   82.6050 C.ar      1 <0>         0.7367 
     26 N1         25.3039   35.1910   81.9658 N.ar      1 <0>        -0.6698 
     27 N2         17.7017   37.9912   87.1944 N.4       1 <0>        -0.2000 
     28 N3         23.9532   37.8378   85.0219 N.pl3     1 <0>        -0.7800 
     29 N4         20.3326   37.6071   86.0652 N.4       1 <0>        -0.1000 
     30 O1         27.4674   36.1972   82.3653 O.3       1 <0>        -0.3481 
     31 H1         26.8938   42.0798   87.1039 H         1 <0>         0.1150 
     32 H2         33.3044   37.8625   83.0887 H         1 <0>         0.1150 
     33 H3         26.8947   39.7937   88.0931 H         1 <0>         0.1150 
     34 H4         26.9073   42.3674   84.6364 H         1 <0>         0.1150 
     35 H5         32.2245   36.1412   81.6407 H         1 <0>         0.1150 
     36 H6         31.9039   39.2737   84.5784 H         1 <0>         0.1150 
     37 H7         26.8978   37.8018   86.6123 H         1 <0>         0.1150 
     38 H8         26.9214   40.3746   83.1495 H         1 <0>         0.1150 
     39 H9         29.7919   35.8433   81.6764 H         1 <0>         0.1150 
     40 H10        29.4711   38.9937   84.6311 H         1 <0>         0.1150 
     41 H11        22.5085   35.8858   83.7223 H         1 <0>         0.2142 
     42 H12        23.3647   34.4936   81.9075 H         1 <0>         0.0784 
     43 H13        18.2756   40.0043   87.4492 H         1 <0>         0.0600 
     44 H14        18.1940   39.4674   85.7869 H         1 <0>         0.0600 
     45 H15        17.3763   35.9901   86.7658 H         1 <0>         0.0600 
     46 H16        17.7196   37.0146   85.3643 H         1 <0>         0.0600 
     47 H17        20.5413   39.7060   86.3685 H         1 <0>         0.0600 
     48 H18        20.3755   38.7774   87.8305 H         1 <0>         0.0600 
     49 H19        19.7266   36.1842   87.5325 H         1 <0>         0.0600 
     50 H20        19.7073   35.5905   85.8883 H         1 <0>         0.0600 
     51 H21        22.1047   38.1410   84.0906 H         1 <0>         0.0600 
     52 H22        22.4905   39.2333   85.3940 H         1 <0>         0.0600 
     53 H23        22.1889   37.4043   87.0858 H         1 <0>         0.0600 
     54 H24        21.9246   36.2474   85.8134 H         1 <0>         0.0600 
     55 H25        17.8326   37.7958   88.1749 H         1 <0>         0.3100 
     56 H26        16.7327   38.2711   87.0536 H         1 <0>         0.3100 
     57 H27        24.6199   38.5502   85.2997 H         1 <0>         0.3800 
     58 H28        20.0944   37.7657   85.0960 H         1 <0>         0.2900 
@<TRIPOS>BOND
     1    1    3 ar   
     2    1    4 ar   
     3    1   31 1    
     4    2    5 ar   
     5    2    6 ar   
     6    2   32 1    
     7    3    7 ar   
     8    3   33 1    
     9    4    8 ar   
    10    4   34 1    
    11    5    9 ar   
    12    5   35 1    
    13    6   10 ar   
    14    6   36 1    
    15    7   19 ar   
    16    7   37 1    
    17    8   19 ar   
    18    8   38 1    
    19    9   20 ar   
    20    9   39 1    
    21   10   20 ar   
    22   10   40 1    
    23   11   12 ar   
    24   11   21 ar   
    25   11   41 1    
    26   12   26 ar   
    27   12   42 1    
    28   13   15 1    
    29   13   27 1    
    30   13   43 1    
    31   13   44 1    
    32   14   16 1    
    33   14   27 1    
    34   14   45 1    
    35   14   46 1    
    36   15   29 1    
    37   15   47 1    
    38   15   48 1    
    39   16   29 1    
    40   16   49 1    
    41   16   50 1    
    42   17   18 1    
    43   17   28 1    
    44   17   51 1    
    45   17   52 1    
    46   18   29 1    
    47   18   53 1    
    48   18   54 1    
    49   19   23 1    
    50   20   24 1    
    51   21   22 ar   
    52   21   28 1    
    53   22   23 1    
    54   22   25 ar   
    55   23   24 2    
    56   24   30 1    
    57   25   26 ar   
    58   25   30 1    
    59   27   55 1    
    60   27   56 1    
    61   28   57 1    
    62   29   58 1    
@<TRIPOS>SUBSTRUCTURE
     1 <0>         1 GROUP             0       ****    0 ROOT    
@<TRIPOS>MOLECULE
lck-ligand
58   62    1
SMALL
USER_CHARGES


@<TRIPOS>ATOM
      1 C1         27.6921   41.2738   86.1718 C.ar      1 <0>        -0.1150 
      2 C2         32.5982   37.3190   82.7570 C.ar      1 <0>        -0.1150 
      3 C3         27.9551   41.3281   84.7897 C.ar      1 <0>        -0.1150 
      4 C4         27.3094   40.0581   86.7699 C.ar      1 <0>        -0.1150 
      5 C5         31.9147   38.0572   83.7394 C.ar      1 <0>        -0.1150 
      6 C6         31.8765   36.4908   81.8789 C.ar      1 <0>        -0.1150 
      7 C7         27.8339   40.1655   84.0045 C.ar      1 <0>        -0.1150 
      8 C8         27.1933   38.8958   85.9844 C.ar      1 <0>        -0.1150 
      9 C9         30.5124   37.9715   83.8389 C.ar      1 <0>        -0.1150 
     10 C10        30.4748   36.4064   81.9794 C.ar      1 <0>        -0.1150 
     11 C11        23.8469   36.1472   83.5646 C.ar      1 <0>        -0.5299 
     12 C12        24.2620   35.1914   82.6199 C.ar      1 <0>         0.3615 
     13 C13        19.0505   39.8953   86.6865 C.3       1 <0>         0.1700 
     14 C14        18.3479   37.6086   86.0868 C.3       1 <0>         0.1700 
     15 C15        20.5001   39.4148   86.8492 C.3       1 <0>         0.1500 
     16 C16        19.8051   37.1252   86.2363 C.3       1 <0>         0.1500 
     17 C17        22.9954   38.5654   84.9617 C.3       1 <0>         0.0800 
     18 C18        22.1865   37.8092   86.0294 C.3       1 <0>         0.1500 
     19 C19        27.4584   38.9428   84.5991 C.ar      1 <0>         0.0000 
     20 C20        29.7684   37.1512   82.9570 C.ar      1 <0>         0.0000 
     21 C21        24.7709   37.1108   84.0300 C.ar      1 <0>         0.3493 
     22 C22        26.1135   37.0309   83.5818 C.ar      1 <0>        -0.0020 
     23 C23        27.3560   37.7390   83.7773 C.2       1 <0>        -0.2410 
     24 C24        28.3105   37.0311   83.0709 C.2       1 <0>         0.2507 
     25 C25        26.3961   35.9822   82.6706 C.ar      1 <0>         0.7367 
     26 N1         25.5229   35.0676   82.1658 N.ar      1 <0>        -0.6698 
     27 N2         18.1018   38.7909   86.9373 N.4       1 <0>        -0.2000 
     28 N3         24.3814   38.1337   84.9070 N.pl3     1 <0>        -0.7800 
     29 N4         20.7670   38.2331   85.9868 N.4       1 <0>        -0.1000 
     30 O1         27.7366   36.0050   82.3658 O.3       1 <0>        -0.3481 
     31 H1         27.7893   42.1654   86.7740 H         1 <0>         0.1150 
     32 H2         33.6744   37.3821   82.6825 H         1 <0>         0.1150 
     33 H3         28.2559   42.2604   84.3343 H         1 <0>         0.1150 
     34 H4         27.1145   40.0138   87.8320 H         1 <0>         0.1150 
     35 H5         32.4664   38.6859   84.4231 H         1 <0>         0.1150 
     36 H6         32.3931   35.9171   81.1231 H         1 <0>         0.1150 
     37 H7         28.0386   40.2111   82.9450 H         1 <0>         0.1150 
     38 H8         26.9076   37.9625   86.4495 H         1 <0>         0.1150 
     39 H9         30.0242   38.5317   84.6204 H         1 <0>         0.1150 
     40 H10        29.9502   35.7586   81.2903 H         1 <0>         0.1150 
     41 H11        22.8103   36.1401   83.8568 H         1 <0>         0.2142 
     42 H12        23.5517   34.4741   82.2358 H         1 <0>         0.0784 
     43 H13        18.8340   40.7198   87.3683 H         1 <0>         0.0600 
     44 H14        18.9015   40.2780   85.6765 H         1 <0>         0.0600 
     45 H15        17.6509   36.8161   86.3658 H         1 <0>         0.0600 
     46 H16        18.1359   37.8644   85.0467 H         1 <0>         0.0600 
     47 H17        21.1822   40.2268   86.5921 H         1 <0>         0.0600 
     48 H18        20.6957   39.1603   87.8925 H         1 <0>         0.0600 
     49 H19        19.9684   36.7212   87.2354 H         1 <0>         0.0600 
     50 H20        19.9862   36.3082   85.5351 H         1 <0>         0.0600 
     51 H21        22.5376   38.4588   83.9770 H         1 <0>         0.0600 
     52 H22        22.9943   39.6341   85.1774 H         1 <0>         0.0600 
     53 H23        22.6086   37.9699   87.0235 H         1 <0>         0.0600 
     54 H24        22.2556   36.7346   85.8595 H         1 <0>         0.0600 
     55 H25        18.1361   38.5193   87.9078 H         1 <0>         0.3100 
     56 H26        17.1532   39.1743   86.7648 H         1 <0>         0.3100 
     57 H27        25.0907   38.8285   85.1135 H         1 <0>         0.3800 
     58 H28        20.6022   38.5224   85.0324 H         1 <0>         0.2900 
@<TRIPOS>BOND
     1    1    3 ar   
     2    1    4 ar   
     3    1   31 1    
     4    2    5 ar   
     5    2    6 ar   
     6    2   32 1    
     7    3    7 ar   
     8    3   33 1    
     9    4    8 ar   
    10    4   34 1    
    11    5    9 ar   
    12    5   35 1    
    13    6   10 ar   
    14    6   36 1    
    15    7   19 ar   
    16    7   37 1    
    17    8   19 ar   
    18    8   38 1    
    19    9   20 ar   
    20    9   39 1    
    21   10   20 ar   
    22   10   40 1    
    23   11   12 ar   
    24   11   21 ar   
    25   11   41 1    
    26   12   26 ar   
    27   12   42 1    
    28   13   15 1    
    29   13   27 1    
    30   13   43 1    
    31   13   44 1    
    32   14   16 1    
    33   14   27 1    
    34   14   45 1    
    35   14   46 1    
    36   15   29 1    
    37   15   47 1    
    38   15   48 1    
    39   16   29 1    
    40   16   49 1    
    41   16   50 1    
    42   17   18 1    
    43   17   28 1    
    44   17   51 1    
    45   17   52 1    
    46   18   29 1    
    47   18   53 1    
    48   18   54 1    
    49   19   23 1    
    50   20   24 1    
    51   21   22 ar   
    52   21   28 1    
    53   22   23 1    
    54   22   25 ar   
    55   23   24 2    
    56   24   30 1    
    57   25   26 ar   
    58   25   30 1    
    59   27   55 1    
    60   27   56 1    
    61   28   57 1    
    62   29   58 1    
@<TRIPOS>SUBSTRUCTURE
     1 <0>         1 GROUP             0       ****    0 ROOT    
@<TRIPOS>MOLECULE
lck-ligand
58   62    1
SMALL
USER_CHARGES


@<TRIPOS>ATOM
      1 C1         28.3682   41.5256   85.7711 C.ar      1 <0>        -0.1150 
      2 C2         32.9683   37.2308   82.5539 C.ar      1 <0>        -0.1150 
      3 C3         27.8586   40.4052   86.4550 C.ar      1 <0>        -0.1150 
      4 C4         28.6792   41.4322   84.4012 C.ar      1 <0>        -0.1150 
      5 C5         32.1962   36.4497   81.6758 C.ar      1 <0>        -0.1150 
      6 C6         32.3372   37.9479   83.5867 C.ar      1 <0>        -0.1150 
      7 C7         27.6598   39.1921   85.7689 C.ar      1 <0>        -0.1150 
      8 C8         28.4718   40.2192   83.7161 C.ar      1 <0>        -0.1150 
      9 C9         30.7985   36.3918   81.8295 C.ar      1 <0>        -0.1150 
     10 C10        30.9381   37.8890   83.7344 C.ar      1 <0>        -0.1150 
     11 C11        24.1979   36.3910   83.5745 C.ar      1 <0>        -0.5299 
     12 C12        24.5678   35.3312   82.7277 C.ar      1 <0>         0.3615 
     13 C13        19.4335   40.4048   86.1970 C.3       1 <0>         0.1700 
     14 C14        18.7973   38.0402   85.8940 C.3       1 <0>         0.1700 
     15 C15        20.8899   39.9806   86.4533 C.3       1 <0>         0.1500 
     16 C16        20.2536   37.6150   86.1572 C.3       1 <0>         0.1500 
     17 C17        23.4695   38.9472   84.8079 C.3       1 <0>         0.0800 
     18 C18        22.6215   38.2991   85.9133 C.3       1 <0>         0.1500 
     19 C19        27.9595   39.0928   84.3935 C.ar      1 <0>         0.0000 
     20 C20        30.1451   37.1200   82.8502 C.ar      1 <0>         0.0000 
     21 C21        25.1671   37.3412   83.9749 C.ar      1 <0>         0.3493 
     22 C22        26.5033   37.1674   83.5333 C.ar      1 <0>        -0.0020 
     23 C23        27.7781   37.8330   83.6693 C.2       1 <0>        -0.2410 
     24 C24        28.6894   37.0406   82.9992 C.2       1 <0>         0.2507 
     25 C25        26.7319   36.0380   82.7016 C.ar      1 <0>         0.7367 
     26 N1         25.8186   35.1153   82.2854 N.ar      1 <0>        -0.6698 
     27 N2         18.5018   39.3201   86.5676 N.4       1 <0>        -0.2000 
     28 N3         24.8301   38.4371   84.7833 N.pl3     1 <0>        -0.7800 
     29 N4         21.2011   38.6948   85.7731 N.4       1 <0>        -0.1000 
     30 O1         28.0671   35.9921   82.3698 O.3       1 <0>        -0.3481 
     31 H1         28.5335   42.4540   86.2983 H         1 <0>         0.1150 
     32 H2         34.0418   37.2726   82.4411 H         1 <0>         0.1150 
     33 H3         27.6350   40.4730   87.5094 H         1 <0>         0.1150 
     34 H4         29.0882   42.2883   83.8819 H         1 <0>         0.1150 
     35 H5         32.6710   35.8877   80.8841 H         1 <0>         0.1150 
     36 H6         32.9267   38.5401   84.2716 H         1 <0>         0.1150 
     37 H7         27.2873   38.3324   86.3066 H         1 <0>         0.1150 
     38 H8         28.7260   40.1464   82.6706 H         1 <0>         0.1150 
     39 H9         30.2305   35.7774   81.1459 H         1 <0>         0.1150 
     40 H10        30.4885   38.4340   84.5501 H         1 <0>         0.1150 
     41 H11        23.1626   36.4605   83.8624 H         1 <0>         0.2142 
     42 H12        23.8227   34.6219   82.3950 H         1 <0>         0.0784 
     43 H13        19.1889   41.3023   86.7675 H         1 <0>         0.0600 
     44 H14        19.3019   40.6559   85.1449 H         1 <0>         0.0600 
     45 H15        18.1052   37.2772   86.2539 H         1 <0>         0.0600 
     46 H16        18.6179   38.1485   84.8229 H         1 <0>         0.0600 
     47 H17        21.5630   40.7638   86.1014 H         1 <0>         0.0600 
     48 H18        21.0635   39.8773   87.5258 H         1 <0>         0.0600 
     49 H19        20.3910   37.3660   87.2107 H         1 <0>         0.0600 
     50 H20        20.4694   36.7085   85.5882 H         1 <0>         0.0600 
     51 H21        23.0031   38.8043   83.8337 H         1 <0>         0.0600 
     52 H22        23.5212   40.0258   84.9604 H         1 <0>         0.0600 
     53 H23        23.0002   38.5668   86.8999 H         1 <0>         0.0600 
     54 H24        22.7081   37.2142   85.8540 H         1 <0>         0.0600 
     55 H25        18.5470   39.1773   87.5647 H         1 <0>         0.3100 
     56 H26        17.5239   39.5916   86.3653 H         1 <0>         0.3100 
     57 H27        25.5743   39.1051   84.9498 H         1 <0>         0.3800 
     58 H28        21.0605   38.8434   84.7831 H         1 <0>         0.2900 
@<TRIPOS>BOND
     1    1    3 ar   
     2    1    4 ar   
     3    1   31 1    
     4    2    5 ar   
     5    2    6 ar   
     6    2   32 1    
     7    3    7 ar   
     8    3   33 1    
     9    4    8 ar   
    10    4   34 1    
    11    5    9 ar   
    12    5   35 1    
    13    6   10 ar   
    14    6   36 1    
    15    7   19 ar   
    16    7   37 1    
    17    8   19 ar   
    18    8   38 1    
    19    9   20 ar   
    20    9   39 1    
    21   10   20 ar   
    22   10   40 1    
    23   11   12 ar   
    24   11   21 ar   
    25   11   41 1    
    26   12   26 ar   
    27   12   42 1    
    28   13   15 1    
    29   13   27 1    
    30   13   43 1    
    31   13   44 1    
    32   14   16 1    
    33   14   27 1    
    34   14   45 1    
    35   14   46 1    
    36   15   29 1    
    37   15   47 1    
    38   15   48 1    
    39   16   29 1    
    40   16   49 1    
    41   16   50 1    
    42   17   18 1    
    43   17   28 1    
    44   17   51 1    
    45   17   52 1    
    46   18   29 1    
    47   18   53 1    
    48   18   54 1    
    49   19   23 1    
    50   20   24 1    
    51   21   22 ar   
    52   21   28 1    
    53   22   23 1    
    54   22   25 ar   
    55   23   24 2    
    56   24   30 1    
    57   25   26 ar   
    58   25   30 1    
    59   27   55 1    
    60   27   56 1    
    61   28   57 1    
    62   29   58 1    
@<TRIPOS>SUBSTRUCTURE
     1 <0>         1 GROUP             0       ****    0 ROOT    
