@<TRIPOS>MOLECULE
lkha4-ligand
41   42    1
SMALL
USER_CHARGES


@<TRIPOS>ATOM
      1 C1          8.2428   38.1095   68.6860 C.ar      1 <0>        -0.1150 
      2 C2          8.0364   39.1449   69.6068 C.ar      1 <0>        -0.1150 
      3 C3          8.6761   38.4284   67.3899 C.ar      1 <0>        -0.1150 
      4 C4          8.2295   40.4807   69.2096 C.ar      1 <0>        -0.1150 
      5 C5          8.9234   39.7601   67.0131 C.ar      1 <0>        -0.1150 
      6 C6         12.5362   43.4986   64.6757 C.ar      1 <0>        -0.1150 
      7 C7         12.8639   41.4952   65.9920 C.ar      1 <0>        -0.1150 
      8 C8         11.1977   43.5275   65.1199 C.ar      1 <0>        -0.1150 
      9 C9         11.5473   41.5645   66.4623 C.ar      1 <0>        -0.1150 
     10 C10         8.9613   42.2907   67.6539 C.3       1 <0>         0.1818 
     11 C11        17.9092   41.9862   64.8177 C.3       1 <0>        -0.2200 
     12 C12         8.7033   40.8110   67.9320 C.ar      1 <0>        -0.0418 
     13 C13        13.3796   42.4429   65.0742 C.ar      1 <0>         0.0850 
     14 C14        10.6832   42.5743   66.0105 C.ar      1 <0>         0.0850 
     15 C15        16.8843   41.4404   63.7842 C.3       1 <0>         0.2500 
     16 C16        18.1345   43.4951   64.7701 C.2       1 <0>         0.7000 
     17 C17        15.4916   41.2916   64.4063 C.2       1 <0>         0.5000 
     18 N1         16.8393   42.1748   62.5054 N.4       1 <0>        -0.3000 
     19 N2         14.6973   42.3799   64.5232 N.am      1 <0>        -0.3850 
     20 O1         18.8409   43.8990   63.8243 O.co2     1 <0>        -0.8000 
     21 O2         17.5647   44.2101   65.6231 O.co2     1 <0>        -0.8000 
     22 O3         15.1773   40.1718   64.8045 O.2       1 <0>        -0.5000 
     23 O4          9.3499   42.6510   66.3370 O.3       1 <0>        -0.2850 
     24 H1          8.0758   37.0808   68.9699 H         1 <0>         0.1150 
     25 H2          7.6962   38.9226   70.6076 H         1 <0>         0.1150 
     26 H3          8.8400   37.6360   66.6807 H         1 <0>         0.1150 
     27 H4          8.0408   41.2663   69.9257 H         1 <0>         0.1150 
     28 H5          9.3101   39.9289   66.0220 H         1 <0>         0.1150 
     29 H6         12.8937   44.2580   63.9945 H         1 <0>         0.1150 
     30 H7         13.4432   40.6630   66.3395 H         1 <0>         0.1150 
     31 H8         10.5430   44.3197   64.8046 H         1 <0>         0.1150 
     32 H9         11.2291   40.8080   67.1590 H         1 <0>         0.1150 
     33 H10         9.6898   42.6677   68.3742 H         1 <0>         0.0300 
     34 H11         8.0357   42.8286   67.8622 H         1 <0>         0.0300 
     35 H12        18.8770   41.5185   64.6320 H         1 <0>         0.0600 
     36 H13        17.6420   41.6960   65.8350 H         1 <0>         0.0600 
     37 H14        17.2011   40.4290   63.5235 H         1 <0>         0.0600 
     38 H15        16.1422   41.7116   61.9247 H         1 <0>         0.3300 
     39 H16        16.5789   43.1384   62.6746 H         1 <0>         0.3300 
     40 H17        17.7496   42.1529   62.0679 H         1 <0>         0.3300 
     41 H18        15.0499   43.2532   64.1501 H         1 <0>         0.3000 
@<TRIPOS>BOND
     1    1    2 ar   
     2    1    3 ar   
     3    1   24 1    
     4    2    4 ar   
     5    2   25 1    
     6    3    5 ar   
     7    3   26 1    
     8    4   12 ar   
     9    4   27 1    
    10    5   12 ar   
    11    5   28 1    
    12    6    8 ar   
    13    6   13 ar   
    14    6   29 1    
    15    7    9 ar   
    16    7   13 ar   
    17    7   30 1    
    18    8   14 ar   
    19    8   31 1    
    20    9   14 ar   
    21    9   32 1    
    22   10   12 1    
    23   10   23 1    
    24   10   33 1    
    25   10   34 1    
    26   11   15 1    
    27   11   16 1    
    28   11   35 1    
    29   11   36 1    
    30   13   19 1    
    31   14   23 1    
    32   15   17 1    
    33   15   18 1    
    34   15   37 1    
    35   16   20 1    
    36   16   21 2    
    37   17   19 am   BACKBONE|DICT|INTERRES
    38   17   22 2    
    39   18   38 1    
    40   18   39 1    
    41   18   40 1    
    42   19   41 1    
@<TRIPOS>SUBSTRUCTURE
     1 <0>         1 GROUP             0       ****    0 ROOT    
@<TRIPOS>MOLECULE
lkha4-ligand
41   42    1
SMALL
USER_CHARGES


@<TRIPOS>ATOM
      1 C1          8.2513   38.1832   68.4277 C.ar      1 <0>        -0.1150 
      2 C2          7.9790   39.1644   69.3947 C.ar      1 <0>        -0.1150 
      3 C3          8.8385   38.5612   67.2076 C.ar      1 <0>        -0.1150 
      4 C4          8.2766   40.5140   69.1271 C.ar      1 <0>        -0.1150 
      5 C5          9.1639   39.8989   66.9530 C.ar      1 <0>        -0.1150 
      6 C6         12.7538   43.4984   64.5419 C.ar      1 <0>        -0.1150 
      7 C7         13.0982   41.4494   65.7805 C.ar      1 <0>        -0.1150 
      8 C8         11.4555   43.5730   65.0825 C.ar      1 <0>        -0.1150 
      9 C9         11.8440   41.5932   66.4044 C.ar      1 <0>        -0.1150 
     10 C10         9.2824   42.3416   67.7081 C.3       1 <0>         0.1818 
     11 C11        17.8765   40.2530   63.1140 C.3       1 <0>        -0.2200 
     12 C12         8.8899   40.8886   67.9146 C.ar      1 <0>        -0.0418 
     13 C13        13.5807   42.4003   64.8516 C.ar      1 <0>         0.0850 
     14 C14        10.9748   42.6289   66.0046 C.ar      1 <0>         0.0850 
     15 C15        16.9016   41.4643   63.1417 C.3       1 <0>         0.2500 
     16 C16        18.6807   40.0422   64.4047 C.2       1 <0>         0.7000 
     17 C17        15.7197   41.2962   64.1184 C.2       1 <0>         0.5000 
     18 N1         17.6410   42.6990   63.4381 N.4       1 <0>        -0.3000 
     19 N2         14.8211   42.3011   64.1579 N.am      1 <0>        -0.3850 
     20 O1         18.8439   38.8702   64.8045 O.co2     1 <0>        -0.8000 
     21 O2         19.0785   41.0718   64.9985 O.co2     1 <0>        -0.8000 
     22 O3         15.6389   40.2827   64.8046 O.2       1 <0>        -0.5000 
     23 O4          9.6534   42.7292   66.3886 O.3       1 <0>        -0.2850 
     24 H1          8.0144   37.1464   68.6205 H         1 <0>         0.1150 
     25 H2          7.5211   38.8897   70.3340 H         1 <0>         0.1150 
     26 H3          9.0579   37.8249   66.4528 H         1 <0>         0.1150 
     27 H4          8.0391   41.2615   69.8691 H         1 <0>         0.1150 
     28 H5          9.6396   40.1410   66.0156 H         1 <0>         0.1150 
     29 H6         13.0830   44.2517   63.8392 H         1 <0>         0.1150 
     30 H7         13.6394   40.5513   66.0048 H         1 <0>         0.1150 
     31 H8         10.8081   44.3861   64.8047 H         1 <0>         0.1150 
     32 H9         11.5387   40.8390   67.1095 H         1 <0>         0.1150 
     33 H10        10.0719   42.6130   68.4057 H         1 <0>         0.0300 
     34 H11         8.4232   42.9562   67.9799 H         1 <0>         0.0300 
     35 H12        18.5936   40.3764   62.3017 H         1 <0>         0.0600 
     36 H13        17.3243   39.3400   62.8868 H         1 <0>         0.0600 
     37 H14        16.4755   41.5879   62.1479 H         1 <0>         0.0600 
     38 H15        17.0104   43.4714   63.6056 H         1 <0>         0.3300 
     39 H16        18.1975   42.4777   64.2667 H         1 <0>         0.3300 
     40 H17        18.2733   42.9051   62.6788 H         1 <0>         0.3300 
     41 H18        14.9972   43.0730   63.5306 H         1 <0>         0.3000 
@<TRIPOS>BOND
     1    1    2 ar   
     2    1    3 ar   
     3    1   24 1    
     4    2    4 ar   
     5    2   25 1    
     6    3    5 ar   
     7    3   26 1    
     8    4   12 ar   
     9    4   27 1    
    10    5   12 ar   
    11    5   28 1    
    12    6    8 ar   
    13    6   13 ar   
    14    6   29 1    
    15    7    9 ar   
    16    7   13 ar   
    17    7   30 1    
    18    8   14 ar   
    19    8   31 1    
    20    9   14 ar   
    21    9   32 1    
    22   10   12 1    
    23   10   23 1    
    24   10   33 1    
    25   10   34 1    
    26   11   15 1    
    27   11   16 1    
    28   11   35 1    
    29   11   36 1    
    30   13   19 1    
    31   14   23 1    
    32   15   17 1    
    33   15   18 1    
    34   15   37 1    
    35   16   20 1    
    36   16   21 2    
    37   17   19 am   BACKBONE|DICT|INTERRES
    38   17   22 2    
    39   18   38 1    
    40   18   39 1    
    41   18   40 1    
    42   19   41 1    
@<TRIPOS>SUBSTRUCTURE
     1 <0>         1 GROUP             0       ****    0 ROOT    
@<TRIPOS>MOLECULE
lkha4-ligand
41   42    1
SMALL
USER_CHARGES


@<TRIPOS>ATOM
      1 C1          8.1102   38.0967   68.5909 C.ar      1 <0>        -0.1150 
      2 C2          7.9014   39.1141   69.5320 C.ar      1 <0>        -0.1150 
      3 C3          8.6680   38.4238   67.3450 C.ar      1 <0>        -0.1150 
      4 C4          8.2259   40.4452   69.2092 C.ar      1 <0>        -0.1150 
      5 C5          9.0299   39.7460   67.0361 C.ar      1 <0>        -0.1150 
      6 C6         12.6002   43.5059   64.6156 C.ar      1 <0>        -0.1150 
      7 C7         13.0197   41.4723   65.8547 C.ar      1 <0>        -0.1150 
      8 C8         11.2779   43.5037   65.1012 C.ar      1 <0>        -0.1150 
      9 C9         11.7229   41.5188   66.3991 C.ar      1 <0>        -0.1150 
     10 C10         9.2013   42.2293   67.7402 C.3       1 <0>         0.1818 
     11 C11        17.9955   42.9793   64.4453 C.3       1 <0>        -0.2200 
     12 C12         8.8109   40.7760   67.9745 C.ar      1 <0>        -0.0418 
     13 C13        13.4870   42.4766   64.9776 C.ar      1 <0>         0.0850 
     14 C14        10.8251   42.5312   66.0044 C.ar      1 <0>         0.0850 
     15 C15        17.0898   41.9232   63.7309 C.3       1 <0>         0.2500 
     16 C16        17.5357   43.5160   65.8078 C.2       1 <0>         0.7000 
     17 C17        15.7509   41.5645   64.4006 C.2       1 <0>         0.5000 
     18 N1         16.8363   42.2976   62.3294 N.4       1 <0>        -0.3000 
     19 N2         14.8009   42.5226   64.4352 N.am      1 <0>        -0.3850 
     20 O1         17.2393   44.7289   65.8761 O.co2     1 <0>        -0.8000 
     21 O2         17.4850   42.7001   66.7515 O.co2     1 <0>        -0.8000 
     22 O3         15.5977   40.4131   64.8045 O.2       1 <0>        -0.5000 
     23 O4          9.5095   42.5957   66.4041 O.3       1 <0>        -0.2850 
     24 H1          7.8536   37.0737   68.8246 H         1 <0>         0.1150 
     25 H2          7.4708   38.8827   70.4951 H         1 <0>         0.1150 
     26 H3          8.8394   37.6446   66.6231 H         1 <0>         0.1150 
     27 H4          8.0407   41.2215   69.9372 H         1 <0>         0.1150 
     28 H5          9.4895   39.9359   66.0794 H         1 <0>         0.1150 
     29 H6         12.9220   44.2938   63.9503 H         1 <0>         0.1150 
     30 H7         13.6381   40.6331   66.1155 H         1 <0>         0.1150 
     31 H8         10.6053   44.2947   64.8099 H         1 <0>         0.1150 
     32 H9         11.4283   40.7429   67.0835 H         1 <0>         0.1150 
     33 H10        10.0224   42.4985   68.4048 H         1 <0>         0.0300 
     34 H11         8.3595   42.8523   68.0449 H         1 <0>         0.0300 
     35 H12        18.1341   43.8450   63.7958 H         1 <0>         0.0600 
     36 H13        18.9955   42.5655   64.5782 H         1 <0>         0.0600 
     37 H14        17.6607   40.9940   63.6898 H         1 <0>         0.0600 
     38 H15        16.1798   41.6173   61.9433 H         1 <0>         0.3300 
     39 H16        16.4126   43.2139   62.3049 H         1 <0>         0.3300 
     40 H17        17.6976   42.2918   61.8046 H         1 <0>         0.3300 
     41 H18        15.0603   43.4160   64.0342 H         1 <0>         0.3000 
@<TRIPOS>BOND
     1    1    2 ar   
     2    1    3 ar   
     3    1   24 1    
     4    2    4 ar   
     5    2   25 1    
     6    3    5 ar   
     7    3   26 1    
     8    4   12 ar   
     9    4   27 1    
    10    5   12 ar   
    11    5   28 1    
    12    6    8 ar   
    13    6   13 ar   
    14    6   29 1    
    15    7    9 ar   
    16    7   13 ar   
    17    7   30 1    
    18    8   14 ar   
    19    8   31 1    
    20    9   14 ar   
    21    9   32 1    
    22   10   12 1    
    23   10   23 1    
    24   10   33 1    
    25   10   34 1    
    26   11   15 1    
    27   11   16 1    
    28   11   35 1    
    29   11   36 1    
    30   13   19 1    
    31   14   23 1    
    32   15   17 1    
    33   15   18 1    
    34   15   37 1    
    35   16   20 1    
    36   16   21 2    
    37   17   19 am   BACKBONE|DICT|INTERRES
    38   17   22 2    
    39   18   38 1    
    40   18   39 1    
    41   18   40 1    
    42   19   41 1    
@<TRIPOS>SUBSTRUCTURE
     1 <0>         1 GROUP             0       ****    0 ROOT    
@<TRIPOS>MOLECULE
lkha4-ligand
41   42    1
SMALL
USER_CHARGES


@<TRIPOS>ATOM
      1 C1          8.0718   38.2788   68.3899 C.ar      1 <0>        -0.1150 
      2 C2          7.8275   39.2905   69.3302 C.ar      1 <0>        -0.1150 
      3 C3          8.7558   38.5959   67.2043 C.ar      1 <0>        -0.1150 
      4 C4          8.2577   40.6060   69.0781 C.ar      1 <0>        -0.1150 
      5 C5          9.2136   39.8977   66.9605 C.ar      1 <0>        -0.1150 
      6 C6         12.8342   43.4991   64.4517 C.ar      1 <0>        -0.1150 
      7 C7         13.2390   41.4065   65.6066 C.ar      1 <0>        -0.1150 
      8 C8         11.5616   43.5642   65.0440 C.ar      1 <0>        -0.1150 
      9 C9         11.9981   41.5295   66.2727 C.ar      1 <0>        -0.1150 
     10 C10         9.4954   42.3258   67.7141 C.3       1 <0>         0.1818 
     11 C11        17.6396   40.5762   62.3658 C.3       1 <0>        -0.2200 
     12 C12         8.9720   40.9149   67.9025 C.ar      1 <0>        -0.0418 
     13 C13        13.6791   42.4062   64.7136 C.ar      1 <0>         0.0850 
     14 C14        11.1236   42.5948   65.9585 C.ar      1 <0>         0.0850 
     15 C15        17.0727   41.8403   63.0577 C.3       1 <0>         0.2500 
     16 C16        18.7953   40.8593   61.3928 C.2       1 <0>         0.7000 
     17 C17        15.9406   41.5247   64.0397 C.2       1 <0>         0.5000 
     18 N1         18.1407   42.5993   63.7329 N.4       1 <0>        -0.3000 
     19 N2         14.9047   42.3788   64.0043 N.am      1 <0>        -0.3850 
     20 O1         19.2430   42.0287   61.3491 O.co2     1 <0>        -0.8000 
     21 O2         19.2115   39.8985   60.7144 O.co2     1 <0>        -0.8000 
     22 O3         16.0463   40.5794   64.8166 O.2       1 <0>        -0.5000 
     23 O4          9.8182   42.6992   66.3843 O.3       1 <0>        -0.2850 
     24 H1          7.7351   37.2687   68.5724 H         1 <0>         0.1150 
     25 H2          7.2967   39.0640   70.2434 H         1 <0>         0.1150 
     26 H3          8.9434   37.8348   66.4666 H         1 <0>         0.1150 
     27 H4          8.0400   41.3780   69.8012 H         1 <0>         0.1150 
     28 H5          9.7437   40.0921   66.0406 H         1 <0>         0.1150 
     29 H6         13.1385   44.2740   63.7625 H         1 <0>         0.1150 
     30 H7         13.8131   40.5130   65.7754 H         1 <0>         0.1150 
     31 H8         10.9029   44.3825   64.8049 H         1 <0>         0.1150 
     32 H9         11.6942   40.7461   66.9477 H         1 <0>         0.1150 
     33 H10        10.3374   42.5112   68.3788 H         1 <0>         0.0300 
     34 H11         8.7112   43.0090   68.0412 H         1 <0>         0.0300 
     35 H12        16.8414   40.0659   61.8228 H         1 <0>         0.0600 
     36 H13        18.0053   39.8651   63.1079 H         1 <0>         0.0600 
     37 H14        16.6733   42.4865   62.2728 H         1 <0>         0.0600 
     38 H15        17.7998   43.4977   64.0382 H         1 <0>         0.3300 
     39 H16        18.5044   42.0603   64.5048 H         1 <0>         0.3300 
     40 H17        18.8637   42.7094   63.0203 H         1 <0>         0.3300 
     41 H18        15.0142   43.1494   63.3550 H         1 <0>         0.3000 
@<TRIPOS>BOND
     1    1    2 ar   
     2    1    3 ar   
     3    1   24 1    
     4    2    4 ar   
     5    2   25 1    
     6    3    5 ar   
     7    3   26 1    
     8    4   12 ar   
     9    4   27 1    
    10    5   12 ar   
    11    5   28 1    
    12    6    8 ar   
    13    6   13 ar   
    14    6   29 1    
    15    7    9 ar   
    16    7   13 ar   
    17    7   30 1    
    18    8   14 ar   
    19    8   31 1    
    20    9   14 ar   
    21    9   32 1    
    22   10   12 1    
    23   10   23 1    
    24   10   33 1    
    25   10   34 1    
    26   11   15 1    
    27   11   16 1    
    28   11   35 1    
    29   11   36 1    
    30   13   19 1    
    31   14   23 1    
    32   15   17 1    
    33   15   18 1    
    34   15   37 1    
    35   16   20 1    
    36   16   21 2    
    37   17   19 am   BACKBONE|DICT|INTERRES
    38   17   22 2    
    39   18   38 1    
    40   18   39 1    
    41   18   40 1    
    42   19   41 1    
@<TRIPOS>SUBSTRUCTURE
     1 <0>         1 GROUP             0       ****    0 ROOT    
@<TRIPOS>MOLECULE
lkha4-ligand
41   42    1
SMALL
USER_CHARGES


@<TRIPOS>ATOM
      1 C1          8.0907   38.4369   68.3051 C.ar      1 <0>        -0.1150 
      2 C2          8.8383   38.6922   67.1433 C.ar      1 <0>        -0.1150 
      3 C3          7.8303   39.4894   69.1974 C.ar      1 <0>        -0.1150 
      4 C4          9.3435   39.9733   66.8825 C.ar      1 <0>        -0.1150 
      5 C5          8.3037   40.7852   68.9164 C.ar      1 <0>        -0.1150 
      6 C6         13.1014   43.5237   64.3690 C.ar      1 <0>        -0.1150 
      7 C7         13.4011   41.4687   65.6027 C.ar      1 <0>        -0.1150 
      8 C8         11.8069   43.6412   64.9102 C.ar      1 <0>        -0.1150 
      9 C9         12.1396   41.6302   66.2035 C.ar      1 <0>        -0.1150 
     10 C10         9.6249   42.4357   67.5441 C.3       1 <0>         0.1818 
     11 C11        17.4076   42.5699   62.2035 C.3       1 <0>        -0.2200 
     12 C12         9.0764   41.0354   67.7633 C.ar      1 <0>        -0.0418 
     13 C13        13.9145   42.4218   64.6924 C.ar      1 <0>         0.0850 
     14 C14        11.3022   42.6991   65.8267 C.ar      1 <0>         0.0850 
     15 C15        17.3179   41.3646   63.1699 C.3       1 <0>         0.2500 
     16 C16        18.4291   42.4613   61.0651 C.2       1 <0>         0.7000 
     17 C17        16.1842   41.4420   64.2111 C.2       1 <0>         0.5000 
     18 N1         17.2392   40.0881   62.4410 N.4       1 <0>        -0.3000 
     19 N2         15.1609   42.2986   64.0047 N.am      1 <0>        -0.3850 
     20 O1         18.6144   43.4990   60.3980 O.co2     1 <0>        -0.8000 
     21 O2         18.9722   41.3520   60.8598 O.co2     1 <0>        -0.8000 
     22 O3         16.2801   40.7254   65.2043 O.2       1 <0>        -0.5000 
     23 O4          9.9826   42.8034   66.2130 O.3       1 <0>        -0.2850 
     24 H1          7.7196   37.4426   68.5069 H         1 <0>         0.1150 
     25 H2          9.0482   37.8981   66.4463 H         1 <0>         0.1150 
     26 H3          7.2500   39.3023   70.0869 H         1 <0>         0.1150 
     27 H4          9.9437   40.1251   66.0046 H         1 <0>         0.1150 
     28 H5          8.0801   41.5874   69.6045 H         1 <0>         0.1150 
     29 H6         13.4480   44.2673   63.6664 H         1 <0>         0.1150 
     30 H7         13.9305   40.5539   65.7984 H         1 <0>         0.1150 
     31 H8         11.1933   44.4762   64.6215 H         1 <0>         0.1150 
     32 H9         11.7981   40.8652   66.8796 H         1 <0>         0.1150 
     33 H10        10.4392   42.6419   68.2372 H         1 <0>         0.0300 
     34 H11         8.8161   43.1022   67.8327 H         1 <0>         0.0300 
     35 H12        17.6356   43.4754   62.7678 H         1 <0>         0.0600 
     36 H13        16.4433   42.7206   61.7173 H         1 <0>         0.0600 
     37 H14        18.2556   41.3325   63.7270 H         1 <0>         0.0600 
     38 H15        17.3726   39.3051   63.0613 H         1 <0>         0.3300 
     39 H16        16.3170   40.0528   62.0046 H         1 <0>         0.3300 
     40 H17        17.9624   40.1332   61.7224 H         1 <0>         0.3300 
     41 H18        15.2717   42.9276   63.2202 H         1 <0>         0.3000 
@<TRIPOS>BOND
     1    1    2 ar   
     2    1    3 ar   
     3    1   24 1    
     4    2    4 ar   
     5    2   25 1    
     6    3    5 ar   
     7    3   26 1    
     8    4   12 ar   
     9    4   27 1    
    10    5   12 ar   
    11    5   28 1    
    12    6    8 ar   
    13    6   13 ar   
    14    6   29 1    
    15    7    9 ar   
    16    7   13 ar   
    17    7   30 1    
    18    8   14 ar   
    19    8   31 1    
    20    9   14 ar   
    21    9   32 1    
    22   10   12 1    
    23   10   23 1    
    24   10   33 1    
    25   10   34 1    
    26   11   15 1    
    27   11   16 1    
    28   11   35 1    
    29   11   36 1    
    30   13   19 1    
    31   14   23 1    
    32   15   17 1    
    33   15   18 1    
    34   15   37 1    
    35   16   20 1    
    36   16   21 2    
    37   17   19 am   BACKBONE|DICT|INTERRES
    38   17   22 2    
    39   18   38 1    
    40   18   39 1    
    41   18   40 1    
    42   19   41 1    
@<TRIPOS>SUBSTRUCTURE
     1 <0>         1 GROUP             0       ****    0 ROOT    
@<TRIPOS>MOLECULE
lkha4-ligand
41   42    1
SMALL
USER_CHARGES


@<TRIPOS>ATOM
      1 C1          8.0340   40.2067   68.8048 C.ar      1 <0>        -0.1150 
      2 C2          9.0779   39.5165   68.1636 C.ar      1 <0>        -0.1150 
      3 C3          7.8668   41.5904   68.5973 C.ar      1 <0>        -0.1150 
      4 C4          9.9924   40.2281   67.3669 C.ar      1 <0>        -0.1150 
      5 C5          8.7768   42.2956   67.7878 C.ar      1 <0>        -0.1150 
      6 C6         15.4082   41.5258   64.6575 C.ar      1 <0>        -0.1150 
      7 C7         15.0774   43.5149   66.0044 C.ar      1 <0>        -0.1150 
      8 C8         14.0392   41.2132   64.8048 C.ar      1 <0>        -0.1150 
      9 C9         13.7146   43.2221   66.1150 C.ar      1 <0>        -0.1150 
     10 C10        10.9497   42.4033   66.4774 C.3       1 <0>         0.1818 
     11 C11        19.4261   43.4552   68.1430 C.3       1 <0>        -0.2200 
     12 C12         9.8696   41.6228   67.2032 C.ar      1 <0>        -0.0418 
     13 C13        15.9524   42.6453   65.3228 C.ar      1 <0>         0.0850 
     14 C14        13.1977   42.0199   65.6042 C.ar      1 <0>         0.0850 
     15 C15        19.4309   43.4037   66.5847 C.3       1 <0>         0.2500 
     16 C16        19.9000   44.7699   68.7862 C.2       1 <0>         0.7000 
     17 C17        18.0585   43.7550   66.0034 C.2       1 <0>         0.5000 
     18 N1         20.4396   44.3001   66.0054 N.4       1 <0>        -0.3000 
     19 N2         17.3640   42.7507   65.4370 N.am      1 <0>        -0.3850 
     20 O1         20.8390   44.6988   69.6078 O.co2     1 <0>        -0.8000 
     21 O2         19.3819   45.8449   68.4037 O.co2     1 <0>        -0.8000 
     22 O3         17.6795   44.9245   66.0245 O.2       1 <0>        -0.5000 
     23 O4         11.9530   41.5386   65.9459 O.3       1 <0>        -0.2850 
     24 H1          7.3403   39.6723   69.4367 H         1 <0>         0.1150 
     25 H2          9.1969   38.4517   68.3019 H         1 <0>         0.1150 
     26 H3          7.0425   42.1131   69.0627 H         1 <0>         0.1150 
     27 H4         10.8160   39.6985   66.9132 H         1 <0>         0.1150 
     28 H5          8.6445   43.3563   67.6406 H         1 <0>         0.1150 
     29 H6         16.0441   40.8494   64.1035 H         1 <0>         0.1150 
     30 H7         15.4293   44.3767   66.5447 H         1 <0>         0.1150 
     31 H8         13.6570   40.3004   64.3718 H         1 <0>         0.1150 
     32 H9         13.1248   43.8966   66.7080 H         1 <0>         0.1150 
     33 H10        11.3364   43.0886   67.2274 H         1 <0>         0.0300 
     34 H11        10.5064   42.9958   65.6761 H         1 <0>         0.0300 
     35 H12        20.0786   42.6613   68.5106 H         1 <0>         0.0600 
     36 H13        18.4376   43.2173   68.5396 H         1 <0>         0.0600 
     37 H14        19.6827   42.3878   66.2763 H         1 <0>         0.0600 
     38 H15        20.4045   44.2485   64.9976 H         1 <0>         0.3300 
     39 H16        20.2151   45.2377   66.3117 H         1 <0>         0.3300 
     40 H17        21.3566   44.0395   66.3368 H         1 <0>         0.3300 
     41 H18        17.8706   41.8987   65.2467 H         1 <0>         0.3000 
@<TRIPOS>BOND
     1    1    2 ar   
     2    1    3 ar   
     3    1   24 1    
     4    2    4 ar   
     5    2   25 1    
     6    3    5 ar   
     7    3   26 1    
     8    4   12 ar   
     9    4   27 1    
    10    5   12 ar   
    11    5   28 1    
    12    6    8 ar   
    13    6   13 ar   
    14    6   29 1    
    15    7    9 ar   
    16    7   13 ar   
    17    7   30 1    
    18    8   14 ar   
    19    8   31 1    
    20    9   14 ar   
    21    9   32 1    
    22   10   12 1    
    23   10   23 1    
    24   10   33 1    
    25   10   34 1    
    26   11   15 1    
    27   11   16 1    
    28   11   35 1    
    29   11   36 1    
    30   13   19 1    
    31   14   23 1    
    32   15   17 1    
    33   15   18 1    
    34   15   37 1    
    35   16   20 1    
    36   16   21 2    
    37   17   19 am   BACKBONE|DICT|INTERRES
    38   17   22 2    
    39   18   38 1    
    40   18   39 1    
    41   18   40 1    
    42   19   41 1    
@<TRIPOS>SUBSTRUCTURE
     1 <0>         1 GROUP             0       ****    0 ROOT    
@<TRIPOS>MOLECULE
lkha4-ligand
41   42    1
SMALL
USER_CHARGES


@<TRIPOS>ATOM
      1 C1          8.1462   38.1504   68.5154 C.ar      1 <0>        -0.1150 
      2 C2          7.9358   39.1421   69.4860 C.ar      1 <0>        -0.1150 
      3 C3          8.7074   38.5084   67.2786 C.ar      1 <0>        -0.1150 
      4 C4          8.2547   40.4843   69.2030 C.ar      1 <0>        -0.1150 
      5 C5          9.0699   39.8361   67.0123 C.ar      1 <0>        -0.1150 
      6 C6         13.0510   41.4507   65.8429 C.ar      1 <0>        -0.1150 
      7 C7         12.6864   43.4990   64.6120 C.ar      1 <0>        -0.1150 
      8 C8         11.7636   41.5361   66.4046 C.ar      1 <0>        -0.1150 
      9 C9         11.3622   43.5208   65.0949 C.ar      1 <0>        -0.1150 
     10 C10         9.2317   42.2965   67.7349 C.3       1 <0>         0.1818 
     11 C11        18.1296   42.4471   65.1758 C.3       1 <0>        -0.2200 
     12 C12         8.8402   40.8430   67.9710 C.ar      1 <0>        -0.0418 
     13 C13        13.5472   42.4440   64.9676 C.ar      1 <0>         0.0850 
     14 C14        10.8860   42.5639   66.0055 C.ar      1 <0>         0.0850 
     15 C15        17.2512   41.8604   64.0306 C.3       1 <0>         0.2500 
     16 C16        17.8652   43.8989   65.6049 C.2       1 <0>         0.7000 
     17 C17        15.8227   41.5043   64.4763 C.2       1 <0>         0.5000 
     18 N1         17.2431   42.6984   62.8218 N.4       1 <0>        -0.3000 
     19 N2         14.8764   42.4676   64.4545 N.am      1 <0>        -0.3850 
     20 O1         18.8344   44.6882   65.6055 O.co2     1 <0>        -0.8000 
     21 O2         16.7005   44.2186   65.9181 O.co2     1 <0>        -0.8000 
     22 O3         15.6098   40.3394   64.8042 O.2       1 <0>        -0.5000 
     23 O4          9.5688   42.6579   66.3995 O.3       1 <0>        -0.2850 
     24 H1          7.8851   37.1220   68.7184 H         1 <0>         0.1150 
     25 H2          7.5012   38.8820   70.4392 H         1 <0>         0.1150 
     26 H3          8.8835   37.7574   66.5281 H         1 <0>         0.1150 
     27 H4          8.0512   41.2404   69.9462 H         1 <0>         0.1150 
     28 H5          9.5423   40.0521   66.0682 H         1 <0>         0.1150 
     29 H6         13.6385   40.5908   66.1012 H         1 <0>         0.1150 
     30 H7         13.0280   44.2834   63.9516 H         1 <0>         0.1150 
     31 H8         11.4578   40.7666   67.0932 H         1 <0>         0.1150 
     32 H9         10.7067   44.3248   64.8046 H         1 <0>         0.1150 
     33 H10        10.0425   42.5737   68.4059 H         1 <0>         0.0300 
     34 H11         8.3824   42.9171   68.0230 H         1 <0>         0.0300 
     35 H12        19.1785   42.3738   64.8844 H         1 <0>         0.0600 
     36 H13        18.0349   41.8247   66.0657 H         1 <0>         0.0600 
     37 H14        17.7144   40.9197   63.7280 H         1 <0>         0.0600 
     38 H15        16.7141   42.2122   62.1079 H         1 <0>         0.3300 
     39 H16        16.7908   43.5822   63.0276 H         1 <0>         0.3300 
     40 H17        18.1893   42.8571   62.5075 H         1 <0>         0.3300 
     41 H18        15.1758   43.3806   64.1325 H         1 <0>         0.3000 
@<TRIPOS>BOND
     1    1    2 ar   
     2    1    3 ar   
     3    1   24 1    
     4    2    4 ar   
     5    2   25 1    
     6    3    5 ar   
     7    3   26 1    
     8    4   12 ar   
     9    4   27 1    
    10    5   12 ar   
    11    5   28 1    
    12    6    8 ar   
    13    6   13 ar   
    14    6   29 1    
    15    7    9 ar   
    16    7   13 ar   
    17    7   30 1    
    18    8   14 ar   
    19    8   31 1    
    20    9   14 ar   
    21    9   32 1    
    22   10   12 1    
    23   10   23 1    
    24   10   33 1    
    25   10   34 1    
    26   11   15 1    
    27   11   16 1    
    28   11   35 1    
    29   11   36 1    
    30   13   19 1    
    31   14   23 1    
    32   15   17 1    
    33   15   18 1    
    34   15   37 1    
    35   16   20 1    
    36   16   21 2    
    37   17   19 am   BACKBONE|DICT|INTERRES
    38   17   22 2    
    39   18   38 1    
    40   18   39 1    
    41   18   40 1    
    42   19   41 1    
@<TRIPOS>SUBSTRUCTURE
     1 <0>         1 GROUP             0       ****    0 ROOT    
@<TRIPOS>MOLECULE
lkha4-ligand
41   42    1
SMALL
USER_CHARGES


@<TRIPOS>ATOM
      1 C1          8.1372   38.1416   68.5892 C.ar      1 <0>        -0.1150 
      2 C2          7.9374   39.1576   69.5338 C.ar      1 <0>        -0.1150 
      3 C3          8.6686   38.4739   67.3335 C.ar      1 <0>        -0.1150 
      4 C4          8.2404   40.4924   69.2047 C.ar      1 <0>        -0.1150 
      5 C5          9.0107   39.7998   67.0216 C.ar      1 <0>        -0.1150 
      6 C6         12.6731   43.4666   64.6623 C.ar      1 <0>        -0.1150 
      7 C7         12.9718   41.4028   65.8916 C.ar      1 <0>        -0.1150 
      8 C8         11.3381   43.5088   65.1150 C.ar      1 <0>        -0.1150 
      9 C9         11.6727   41.5018   66.4047 C.ar      1 <0>        -0.1150 
     10 C10         9.1710   42.2916   67.7188 C.3       1 <0>         0.1818 
     11 C11        18.1215   42.0208   64.6591 C.3       1 <0>        -0.2200 
     12 C12         8.8014   40.8308   67.9615 C.ar      1 <0>        -0.0418 
     13 C13        13.4993   42.3844   65.0251 C.ar      1 <0>         0.0850 
     14 C14        10.8256   42.5503   66.0045 C.ar      1 <0>         0.0850 
     15 C15        17.0111   41.4957   63.7082 C.3       1 <0>         0.2500 
     16 C16        18.0602   43.4991   65.0608 C.2       1 <0>         0.7000 
     17 C17        15.6623   41.2870   64.4045 C.2       1 <0>         0.5000 
     18 N1         16.8393   42.2987   62.4874 N.4       1 <0>        -0.3000 
     19 N2         14.8183   42.3383   64.4960 N.am      1 <0>        -0.3850 
     20 O1         17.0193   43.9263   65.6046 O.co2     1 <0>        -0.8000 
     21 O2         19.0651   44.1938   64.8060 O.co2     1 <0>        -0.8000 
     22 O3         15.4083   40.1539   64.8046 O.2       1 <0>        -0.5000 
     23 O4          9.5082   42.6570   66.3864 O.3       1 <0>        -0.2850 
     24 H1          7.8941   37.1159   68.8262 H         1 <0>         0.1150 
     25 H2          7.5272   38.9210   70.5040 H         1 <0>         0.1150 
     26 H3          8.8394   37.6994   66.6063 H         1 <0>         0.1150 
     27 H4          8.0595   41.2644   69.9371 H         1 <0>         0.1150 
     28 H5          9.4606   39.9891   66.0623 H         1 <0>         0.1150 
     29 H6         13.0420   44.2405   64.0041 H         1 <0>         0.1150 
     30 H7         13.5409   40.5394   66.1778 H         1 <0>         0.1150 
     31 H8         10.6988   44.3172   64.8047 H         1 <0>         0.1150 
     32 H9         11.3500   40.7357   67.0882 H         1 <0>         0.1150 
     33 H10         9.9690   42.5831   68.4046 H         1 <0>         0.0300 
     34 H11         8.3079   42.8975   67.9968 H         1 <0>         0.0300 
     35 H12        19.0921   41.8404   64.1944 H         1 <0>         0.0600 
     36 H13        18.1299   41.4331   65.5773 H         1 <0>         0.0600 
     37 H14        17.3281   40.5099   63.3639 H         1 <0>         0.0600 
     38 H15        16.1165   41.8316   61.9425 H         1 <0>         0.3300 
     39 H16        16.5407   43.2348   62.7335 H         1 <0>         0.3300 
     40 H17        17.7051   42.3315   61.9702 H         1 <0>         0.3300 
     41 H18        15.1694   43.2300   64.1672 H         1 <0>         0.3000 
@<TRIPOS>BOND
     1    1    2 ar   
     2    1    3 ar   
     3    1   24 1    
     4    2    4 ar   
     5    2   25 1    
     6    3    5 ar   
     7    3   26 1    
     8    4   12 ar   
     9    4   27 1    
    10    5   12 ar   
    11    5   28 1    
    12    6    8 ar   
    13    6   13 ar   
    14    6   29 1    
    15    7    9 ar   
    16    7   13 ar   
    17    7   30 1    
    18    8   14 ar   
    19    8   31 1    
    20    9   14 ar   
    21    9   32 1    
    22   10   12 1    
    23   10   23 1    
    24   10   33 1    
    25   10   34 1    
    26   11   15 1    
    27   11   16 1    
    28   11   35 1    
    29   11   36 1    
    30   13   19 1    
    31   14   23 1    
    32   15   17 1    
    33   15   18 1    
    34   15   37 1    
    35   16   20 1    
    36   16   21 2    
    37   17   19 am   BACKBONE|DICT|INTERRES
    38   17   22 2    
    39   18   38 1    
    40   18   39 1    
    41   18   40 1    
    42   19   41 1    
@<TRIPOS>SUBSTRUCTURE
     1 <0>         1 GROUP             0       ****    0 ROOT    
@<TRIPOS>MOLECULE
lkha4-ligand
41   42    1
SMALL
USER_CHARGES


@<TRIPOS>ATOM
      1 C1          9.5613   36.4571   72.4244 C.ar      1 <0>        -0.1150 
      2 C2          9.9278   37.7557   72.0215 C.ar      1 <0>        -0.1150 
      3 C3          8.6179   35.7283   71.6747 C.ar      1 <0>        -0.1150 
      4 C4          9.3490   38.3268   70.8711 C.ar      1 <0>        -0.1150 
      5 C5          8.0390   36.2991   70.5243 C.ar      1 <0>        -0.1150 
      6 C6          9.0591   42.5513   67.1439 C.ar      1 <0>        -0.1150 
      7 C7         10.4658   40.5884   66.8370 C.ar      1 <0>        -0.1150 
      8 C8          8.1837   41.8015   67.9526 C.ar      1 <0>        -0.1150 
      9 C9          9.5896   39.8412   67.6471 C.ar      1 <0>        -0.1150 
     10 C10         7.7892   38.2145   68.8727 C.3       1 <0>         0.1818 
     11 C11        14.2974   42.3302   64.0177 C.3       1 <0>        -0.2200 
     12 C12         8.3961   37.6041   70.1223 C.ar      1 <0>        -0.0418 
     13 C13        10.1970   41.9507   66.5701 C.ar      1 <0>         0.0850 
     14 C14         8.4411   40.4322   68.2105 C.ar      1 <0>         0.0850 
     15 C15        12.9937   43.1054   64.3298 C.3       1 <0>         0.2500 
     16 C16        15.3651   42.3996   65.1124 C.2       1 <0>         0.7000 
     17 C17        12.3836   42.7760   65.7049 C.2       1 <0>         0.5000 
     18 N1         13.2390   44.5536   64.2126 N.4       1 <0>        -0.3000 
     19 N2         11.0409   42.7756   65.7821 N.am      1 <0>        -0.3850 
     20 O1         15.3667   43.4154   65.8363 O.co2     1 <0>        -0.8000 
     21 O2         16.1510   41.4313   65.2043 O.co2     1 <0>        -0.8000 
     22 O3         13.1339   42.5385   66.6529 O.2       1 <0>        -0.5000 
     23 O4          7.6404   39.6242   68.9885 O.3       1 <0>        -0.2850 
     24 H1         10.0053   36.0193   73.3064 H         1 <0>         0.1150 
     25 H2         10.6541   38.3139   72.5940 H         1 <0>         0.1150 
     26 H3          8.3390   34.7308   71.9807 H         1 <0>         0.1150 
     27 H4          9.6384   39.3221   70.5668 H         1 <0>         0.1150 
     28 H5          7.3194   35.7322   69.9517 H         1 <0>         0.1150 
     29 H6          8.8463   43.5948   66.9576 H         1 <0>         0.1150 
     30 H7         11.3424   40.0999   66.4403 H         1 <0>         0.1150 
     31 H8          7.3208   42.3030   68.3632 H         1 <0>         0.1150 
     32 H9          9.8030   38.8004   67.8415 H         1 <0>         0.1150 
     33 H10         6.8177   37.7455   68.7097 H         1 <0>         0.0300 
     34 H11         8.4255   37.9806   68.0174 H         1 <0>         0.0300 
     35 H12        14.7313   42.6931   63.0844 H         1 <0>         0.0600 
     36 H13        14.0734   41.2745   63.8618 H         1 <0>         0.0600 
     37 H14        12.2474   42.8658   63.5704 H         1 <0>         0.0600 
     38 H15        12.3716   45.0457   64.3684 H         1 <0>         0.3300 
     39 H16        13.9029   44.8213   64.9252 H         1 <0>         0.3300 
     40 H17        13.6044   44.7662   63.2966 H         1 <0>         0.3300 
     41 H18        10.5686   43.3479   65.0908 H         1 <0>         0.3000 
@<TRIPOS>BOND
     1    1    2 ar   
     2    1    3 ar   
     3    1   24 1    
     4    2    4 ar   
     5    2   25 1    
     6    3    5 ar   
     7    3   26 1    
     8    4   12 ar   
     9    4   27 1    
    10    5   12 ar   
    11    5   28 1    
    12    6    8 ar   
    13    6   13 ar   
    14    6   29 1    
    15    7    9 ar   
    16    7   13 ar   
    17    7   30 1    
    18    8   14 ar   
    19    8   31 1    
    20    9   14 ar   
    21    9   32 1    
    22   10   12 1    
    23   10   23 1    
    24   10   33 1    
    25   10   34 1    
    26   11   15 1    
    27   11   16 1    
    28   11   35 1    
    29   11   36 1    
    30   13   19 1    
    31   14   23 1    
    32   15   17 1    
    33   15   18 1    
    34   15   37 1    
    35   16   20 1    
    36   16   21 2    
    37   17   19 am   BACKBONE|DICT|INTERRES
    38   17   22 2    
    39   18   38 1    
    40   18   39 1    
    41   18   40 1    
    42   19   41 1    
@<TRIPOS>SUBSTRUCTURE
     1 <0>         1 GROUP             0       ****    0 ROOT    
@<TRIPOS>MOLECULE
lkha4-ligand
41   42    1
SMALL
USER_CHARGES


@<TRIPOS>ATOM
      1 C1          9.6357   36.6100   72.2823 C.ar      1 <0>        -0.1150 
      2 C2          9.9800   37.8971   71.8261 C.ar      1 <0>        -0.1150 
      3 C3          8.6406   35.8703   71.6147 C.ar      1 <0>        -0.1150 
      4 C4          9.3274   38.4456   70.7047 C.ar      1 <0>        -0.1150 
      5 C5          7.9879   36.4185   70.4933 C.ar      1 <0>        -0.1150 
      6 C6          9.8931   42.4118   67.6065 C.ar      1 <0>        -0.1150 
      7 C7         10.5317   40.2568   66.6718 C.ar      1 <0>        -0.1150 
      8 C8          8.8397   41.7978   68.3108 C.ar      1 <0>        -0.1150 
      9 C9          9.4784   39.6450   67.3780 C.ar      1 <0>        -0.1150 
     10 C10         7.6356   38.2978   68.8190 C.3       1 <0>         0.1818 
     11 C11        14.9572   42.1533   64.0037 C.3       1 <0>        -0.2200 
     12 C12         8.3228   37.7120   70.0384 C.ar      1 <0>        -0.0418 
     13 C13        10.7376   41.6520   66.7734 C.ar      1 <0>         0.0850 
     14 C14         8.6204   40.4023   68.2002 C.ar      1 <0>         0.0850 
     15 C15        13.7613   42.8174   64.7297 C.3       1 <0>         0.2500 
     16 C16        16.1903   41.9163   64.8791 C.2       1 <0>         0.7000 
     17 C17        12.8917   41.8325   65.5330 C.2       1 <0>         0.5000 
     18 N1         14.2511   43.8978   65.6037 N.4       1 <0>        -0.3000 
     19 N2         11.7878   42.3388   66.1109 N.am      1 <0>        -0.3850 
     20 O1         16.8511   42.9218   65.2083 O.co2     1 <0>        -0.8000 
     21 O2         16.4397   40.7350   65.2047 O.co2     1 <0>        -0.8000 
     22 O3         13.2396   40.6533   65.6143 O.2       1 <0>        -0.5000 
     23 O4          7.6162   39.7195   68.8519 O.3       1 <0>        -0.2850 
     24 H1         10.1364   36.1894   73.1421 H         1 <0>         0.1150 
     25 H2         10.7457   38.4635   72.3354 H         1 <0>         0.1150 
     26 H3          8.3786   34.8815   71.9615 H         1 <0>         0.1150 
     27 H4          9.6000   39.4321   70.3589 H         1 <0>         0.1150 
     28 H5          7.2288   35.8432   69.9835 H         1 <0>         0.1150 
     29 H6         10.0450   43.4779   67.7028 H         1 <0>         0.1150 
     30 H7         11.1748   39.6360   66.0674 H         1 <0>         0.1150 
     31 H8          8.2143   42.4224   68.9300 H         1 <0>         0.1150 
     32 H9          9.3284   38.5790   67.2902 H         1 <0>         0.1150 
     33 H10         6.6171   37.9080   68.7899 H         1 <0>         0.0300 
     34 H11         8.1539   37.9575   67.9208 H         1 <0>         0.0300 
     35 H12        15.2514   42.7569   63.1434 H         1 <0>         0.0600 
     36 H13        14.6587   41.1816   63.6091 H         1 <0>         0.0600 
     37 H14        13.1193   43.2986   63.9899 H         1 <0>         0.0600 
     38 H15        13.4600   44.3555   66.0322 H         1 <0>         0.3300 
     39 H16        14.8249   43.4858   66.3257 H         1 <0>         0.3300 
     40 H17        14.7894   44.5582   65.0634 H         1 <0>         0.3300 
     41 H18        11.6211   43.3235   65.9344 H         1 <0>         0.3000 
@<TRIPOS>BOND
     1    1    2 ar   
     2    1    3 ar   
     3    1   24 1    
     4    2    4 ar   
     5    2   25 1    
     6    3    5 ar   
     7    3   26 1    
     8    4   12 ar   
     9    4   27 1    
    10    5   12 ar   
    11    5   28 1    
    12    6    8 ar   
    13    6   13 ar   
    14    6   29 1    
    15    7    9 ar   
    16    7   13 ar   
    17    7   30 1    
    18    8   14 ar   
    19    8   31 1    
    20    9   14 ar   
    21    9   32 1    
    22   10   12 1    
    23   10   23 1    
    24   10   33 1    
    25   10   34 1    
    26   11   15 1    
    27   11   16 1    
    28   11   35 1    
    29   11   36 1    
    30   13   19 1    
    31   14   23 1    
    32   15   17 1    
    33   15   18 1    
    34   15   37 1    
    35   16   20 1    
    36   16   21 2    
    37   17   19 am   BACKBONE|DICT|INTERRES
    38   17   22 2    
    39   18   38 1    
    40   18   39 1    
    41   18   40 1    
    42   19   41 1    
@<TRIPOS>SUBSTRUCTURE
     1 <0>         1 GROUP             0       ****    0 ROOT    
@<TRIPOS>MOLECULE
lkha4-ligand
41   42    1
SMALL
USER_CHARGES


@<TRIPOS>ATOM
      1 C1          8.0103   38.5988   68.5704 C.ar      1 <0>        -0.1150 
      2 C2          8.7244   38.5240   67.3752 C.ar      1 <0>        -0.1150 
      3 C3          7.8234   39.8544   69.1591 C.ar      1 <0>        -0.1150 
      4 C4          9.2517   39.6901   66.8047 C.ar      1 <0>        -0.1150 
      5 C5          8.3736   41.0289   68.6118 C.ar      1 <0>        -0.1150 
      6 C6         13.9703   42.9756   65.1360 C.ar      1 <0>        -0.1150 
      7 C7         13.3637   40.6133   65.2047 C.ar      1 <0>        -0.1150 
      8 C8         12.8329   43.2783   65.8991 C.ar      1 <0>        -0.1150 
      9 C9         12.2570   40.9393   66.0052 C.ar      1 <0>        -0.1150 
     10 C10         9.6392   42.2269   66.7621 C.3       1 <0>         0.1818 
     11 C11        19.0734   41.4059   63.7051 C.3       1 <0>        -0.2200 
     12 C12         9.1066   40.9539   67.4146 C.ar      1 <0>        -0.0418 
     13 C13        14.2316   41.6358   64.8031 C.ar      1 <0>         0.0850 
     14 C14        11.9793   42.2706   66.3702 C.ar      1 <0>         0.0850 
     15 C15        17.6522   40.8881   63.3521 C.3       1 <0>         0.2500 
     16 C16        19.1986   42.9326   63.6890 C.2       1 <0>         0.7000 
     17 C17        16.5972   41.2767   64.4047 C.2       1 <0>         0.5000 
     18 N1         17.2392   41.3420   62.0047 N.4       1 <0>        -0.3000 
     19 N2         15.3209   41.2964   64.0047 N.am      1 <0>        -0.3850 
     20 O1         18.8387   43.4987   62.6340 O.co2     1 <0>        -0.8000 
     21 O2         19.6125   43.4987   64.7229 O.co2     1 <0>        -0.8000 
     22 O3         16.9199   41.5164   65.5674 O.2       1 <0>        -0.5000 
     23 O4         10.9326   42.6215   67.1917 O.3       1 <0>        -0.2850 
     24 H1          7.5699   37.7131   69.0049 H         1 <0>         0.1150 
     25 H2          8.8392   37.5734   66.8796 H         1 <0>         0.1150 
     26 H3          7.1880   39.8987   70.0047 H         1 <0>         0.1150 
     27 H4          9.7488   39.5865   65.8554 H         1 <0>         0.1150 
     28 H5          8.1941   41.9819   69.0886 H         1 <0>         0.1150 
     29 H6         14.6242   43.7683   64.8047 H         1 <0>         0.1150 
     30 H7         13.5564   39.5836   64.9391 H         1 <0>         0.1150 
     31 H8         12.6044   44.2987   66.1240 H         1 <0>         0.1150 
     32 H9         11.6459   40.1429   66.3765 H         1 <0>         0.1150 
     33 H10         8.9543   43.0434   66.9935 H         1 <0>         0.0300 
     34 H11         9.6392   42.1528   65.6754 H         1 <0>         0.0300 
     35 H12        19.7999   41.0068   62.9967 H         1 <0>         0.0600 
     36 H13        19.3815   41.0335   64.6836 H         1 <0>         0.0600 
     37 H14        17.6793   39.7982   63.3299 H         1 <0>         0.0600 
     38 H15        16.2688   41.0987   61.7939 H         1 <0>         0.3300 
     39 H16        17.3721   42.3505   61.9928 H         1 <0>         0.3300 
     40 H17        17.8512   40.9390   61.3125 H         1 <0>         0.3300 
     41 H18        15.0820   40.9917   63.0579 H         1 <0>         0.3000 
@<TRIPOS>BOND
     1    1    2 ar   
     2    1    3 ar   
     3    1   24 1    
     4    2    4 ar   
     5    2   25 1    
     6    3    5 ar   
     7    3   26 1    
     8    4   12 ar   
     9    4   27 1    
    10    5   12 ar   
    11    5   28 1    
    12    6    8 ar   
    13    6   13 ar   
    14    6   29 1    
    15    7    9 ar   
    16    7   13 ar   
    17    7   30 1    
    18    8   14 ar   
    19    8   31 1    
    20    9   14 ar   
    21    9   32 1    
    22   10   12 1    
    23   10   23 1    
    24   10   33 1    
    25   10   34 1    
    26   11   15 1    
    27   11   16 1    
    28   11   35 1    
    29   11   36 1    
    30   13   19 1    
    31   14   23 1    
    32   15   17 1    
    33   15   18 1    
    34   15   37 1    
    35   16   20 1    
    36   16   21 2    
    37   17   19 am   BACKBONE|DICT|INTERRES
    38   17   22 2    
    39   18   38 1    
    40   18   39 1    
    41   18   40 1    
    42   19   41 1    
@<TRIPOS>SUBSTRUCTURE
     1 <0>         1 GROUP             0       ****    0 ROOT    
@<TRIPOS>MOLECULE
lkha4-ligand
41   42    1
SMALL
USER_CHARGES


@<TRIPOS>ATOM
      1 C1          8.0461   38.4150   68.4670 C.ar      1 <0>        -0.1150 
      2 C2          7.7114   39.5873   69.1582 C.ar      1 <0>        -0.1150 
      3 C3          8.8002   38.5127   67.2914 C.ar      1 <0>        -0.1150 
      4 C4          8.1098   40.8529   68.6840 C.ar      1 <0>        -0.1150 
      5 C5          9.2061   39.7639   66.8081 C.ar      1 <0>        -0.1150 
      6 C6         13.2403   43.0983   64.7752 C.ar      1 <0>        -0.1150 
      7 C7         13.2390   40.8068   65.6020 C.ar      1 <0>        -0.1150 
      8 C8         12.1117   43.3724   65.5726 C.ar      1 <0>        -0.1150 
      9 C9         12.1207   41.0985   66.4046 C.ar      1 <0>        -0.1150 
     10 C10         9.2475   42.2994   66.9270 C.3       1 <0>         0.1818 
     11 C11        17.7111   40.5982   62.6828 C.3       1 <0>        -0.2200 
     12 C12         8.8579   40.9452   67.4920 C.ar      1 <0>        -0.0418 
     13 C13        13.8200   41.8129   64.8045 C.ar      1 <0>         0.0850 
     14 C14        11.5602   42.3828   66.4071 C.ar      1 <0>         0.0850 
     15 C15        17.1969   41.9819   63.1537 C.3       1 <0>         0.2500 
     16 C16        18.7339   40.6641   61.5344 C.2       1 <0>         0.7000 
     17 C17        16.1967   41.9003   64.3118 C.2       1 <0>         0.5000 
     18 N1         18.3076   42.8865   63.5055 N.4       1 <0>        -0.3000 
     19 N2         14.9475   41.5272   64.0047 N.am      1 <0>        -0.3850 
     20 O1         19.3882   41.7229   61.3961 O.co2     1 <0>        -0.8000 
     21 O2         18.8393   39.6572   60.8046 O.co2     1 <0>        -0.8000 
     22 O3         16.5598   42.1564   65.4619 O.2       1 <0>        -0.5000 
     23 O4         10.5578   42.6985   67.2871 O.3       1 <0>        -0.2850 
     24 H1          7.7245   37.4506   68.8324 H         1 <0>         0.1150 
     25 H2          7.1056   39.4987   70.0335 H         1 <0>         0.1150 
     26 H3          9.0592   37.6204   66.7482 H         1 <0>         0.1150 
     27 H4          7.8185   41.7439   69.2223 H         1 <0>         0.1150 
     28 H5          9.7907   39.8010   65.9057 H         1 <0>         0.1150 
     29 H6         13.6545   43.8760   64.1499 H         1 <0>         0.1150 
     30 H7         13.6581   39.8115   65.6049 H         1 <0>         0.1150 
     31 H8         11.6757   44.3541   65.5661 H         1 <0>         0.1150 
     32 H9         11.7067   40.3400   67.0493 H         1 <0>         0.1150 
     33 H10         8.5538   43.0530   67.3014 H         1 <0>         0.0300 
     34 H11         9.1305   42.3047   65.8450 H         1 <0>         0.0300 
     35 H12        16.8695   39.9834   62.3575 H         1 <0>         0.0600 
     36 H13        18.1792   40.0660   63.5117 H         1 <0>         0.0600 
     37 H14        16.6812   42.4477   62.3117 H         1 <0>         0.0600 
     38 H15        17.9693   43.8325   63.5912 H         1 <0>         0.3300 
     39 H16        18.7252   42.5762   64.3702 H         1 <0>         0.3300 
     40 H17        18.9787   42.7920   62.7388 H         1 <0>         0.3300 
     41 H18        14.7790   41.2086   63.0423 H         1 <0>         0.3000 
@<TRIPOS>BOND
     1    1    2 ar   
     2    1    3 ar   
     3    1   24 1    
     4    2    4 ar   
     5    2   25 1    
     6    3    5 ar   
     7    3   26 1    
     8    4   12 ar   
     9    4   27 1    
    10    5   12 ar   
    11    5   28 1    
    12    6    8 ar   
    13    6   13 ar   
    14    6   29 1    
    15    7    9 ar   
    16    7   13 ar   
    17    7   30 1    
    18    8   14 ar   
    19    8   31 1    
    20    9   14 ar   
    21    9   32 1    
    22   10   12 1    
    23   10   23 1    
    24   10   33 1    
    25   10   34 1    
    26   11   15 1    
    27   11   16 1    
    28   11   35 1    
    29   11   36 1    
    30   13   19 1    
    31   14   23 1    
    32   15   17 1    
    33   15   18 1    
    34   15   37 1    
    35   16   20 1    
    36   16   21 2    
    37   17   19 am   BACKBONE|DICT|INTERRES
    38   17   22 2    
    39   18   38 1    
    40   18   39 1    
    41   18   40 1    
    42   19   41 1    
@<TRIPOS>SUBSTRUCTURE
     1 <0>         1 GROUP             0       ****    0 ROOT    
