@<TRIPOS>MOLECULE
mapk2-ligand
49   54    1
SMALL
USER_CHARGES


@<TRIPOS>ATOM
      1 C1         37.6928    6.0230   22.8641 C.3       1 <0>         0.0900 
      2 C2         33.5388    2.2666   14.2967 C.ar      1 <0>        -0.1150 
      3 C3         33.0240    2.1345   12.9952 C.ar      1 <0>        -0.1150 
      4 C4         34.6948    3.0388   14.5203 C.ar      1 <0>        -0.1150 
      5 C5         33.6695    2.7757   11.9228 C.ar      1 <0>        -0.1150 
      6 C6         36.9251    4.9253   15.0169 C.ar      1 <0>        -0.4470 
      7 C7         38.4314    5.5533   12.7954 C.ar      1 <0>         0.4730 
      8 C8         40.1731    6.8175   14.1880 C.3       1 <0>         0.0430 
      9 C9         40.2753    7.7202   15.4513 C.3       1 <0>        -0.0050 
     10 C10        38.4272    5.1062   20.7368 C.3       1 <0>         0.0025 
     11 C11        37.0439    6.6720   20.6140 C.3       1 <0>         0.0025 
     12 C12        39.4837    7.4449   20.8203 C.2       1 <0>         0.3495 
     13 C13        35.3586    3.6917   13.4542 C.ar      1 <0>        -0.0446 
     14 C14        34.8263    3.5479   12.1483 C.ar      1 <0>         0.2200 
     15 C15        38.0876    5.7026   15.1822 C.ar      1 <0>         0.2920 
     16 C16        36.5654    4.5050   13.7165 C.ar      1 <0>         0.5296 
     17 C17        38.8655    6.0242   14.0488 C.ar      1 <0>        -0.4550 
     18 C18        39.5370    7.1311   16.6275 C.ar      1 <0>        -0.1460 
     19 C19        39.6501    7.3559   18.0348 C.ar      1 <0>        -0.1437 
     20 C20        38.5399    6.2226   16.4555 C.ar      1 <0>        -0.0080 
     21 C21        38.6447    6.5115   18.6259 C.ar      1 <0>        -0.1230 
     22 C22        40.5219    8.2198   18.8747 C.2       1 <0>         0.4577 
     23 C23        38.4902    6.5139   20.1400 C.3       1 <0>         0.1150 
     24 N1         38.0314    5.8804   17.6878 N.pl3     1 <0>        -0.2390 
     25 N2         37.3135    4.8160   12.6313 N.ar      1 <0>        -0.6780 
     26 N3         40.3673    8.1892   20.2642 N.am      1 <0>        -0.5122 
     27 N4         37.2823    5.5558   21.5310 N.4       1 <0>         0.1950 
     28 O1         41.3561    8.9350   18.3247 O.2       1 <0>        -0.2225 
     29 F1         35.4269    4.1426   11.0888 F         1 <0>        -0.2200 
     30 H1         38.4685    6.7856   22.8291 H         1 <0>         0.0600 
     31 H2         38.0711    5.1862   23.4521 H         1 <0>         0.0600 
     32 H3         36.8355    6.4409   23.3926 H         1 <0>         0.0600 
     33 H4         33.0484    1.7757   15.1248 H         1 <0>         0.1150 
     34 H5         32.1385    1.5412   12.8196 H         1 <0>         0.1150 
     35 H6         35.0744    3.1315   15.5277 H         1 <0>         0.1150 
     36 H7         33.2790    2.6726   10.9211 H         1 <0>         0.1150 
     37 H8         36.3140    4.6607   15.8660 H         1 <0>         0.1550 
     38 H9         38.9996    5.7634   11.9012 H         1 <0>         0.0120 
     39 H10        40.9683    6.0727   14.2349 H         1 <0>         0.0600 
     40 H11        40.3611    7.4052   13.2887 H         1 <0>         0.0600 
     41 H12        39.8095    8.6835   15.2420 H         1 <0>         0.0600 
     42 H13        41.3168    7.9212   15.7035 H         1 <0>         0.0600 
     43 H14        39.2644    4.8694   21.3934 H         1 <0>         0.0600 
     44 H15        38.1725    4.2957   20.0540 H         1 <0>         0.0600 
     45 H16        36.2630    6.4570   19.8845 H         1 <0>         0.0600 
     46 H17        36.8646    7.5860   21.1803 H         1 <0>         0.0600 
     47 H18        39.4063    7.4550   21.9084 H         1 <0>         0.0402 
     48 H19        37.2788    5.2235   17.8323 H         1 <0>         0.3170 
     49 H20        36.5348    4.9127   21.7495 H         1 <0>         0.2900 
@<TRIPOS>BOND
     1    1   27 1    
     2    1   30 1    
     3    1   31 1    
     4    1   32 1    
     5    2    3 ar   
     6    2    4 ar   
     7    2   33 1    
     8    3    5 ar   
     9    3   34 1    
    10    4   13 ar   
    11    4   35 1    
    12    5   14 ar   
    13    5   36 1    
    14    6   15 ar   
    15    6   16 ar   
    16    6   37 1    
    17    7   17 ar   
    18    7   25 ar   
    19    7   38 1    
    20    8    9 1    
    21    8   17 1    
    22    8   39 1    
    23    8   40 1    
    24    9   18 1    
    25    9   41 1    
    26    9   42 1    
    27   10   23 1    
    28   10   27 1    
    29   10   43 1    
    30   10   44 1    
    31   11   23 1    
    32   11   27 1    
    33   11   45 1    
    34   11   46 1    
    35   12   23 1    
    36   12   26 2    
    37   12   47 1    
    38   13   14 ar   
    39   13   16 1    
    40   14   29 1    
    41   15   17 ar   
    42   15   20 1    
    43   16   25 ar   
    44   18   19 ar   
    45   18   20 ar   
    46   19   21 ar   
    47   19   22 1    
    48   20   24 ar   
    49   21   23 1    
    50   21   24 ar   
    51   22   26 am   BACKBONE|DICT|INTERRES
    52   22   28 2    
    53   24   48 1    
    54   27   49 1    
@<TRIPOS>SUBSTRUCTURE
     1 <0>         1 GROUP             0       ****    0 ROOT    
@<TRIPOS>MOLECULE
mapk2-ligand
49   54    1
SMALL
USER_CHARGES


@<TRIPOS>ATOM
      1 C1         37.9026    5.7371   22.8981 C.3       1 <0>         0.0900 
      2 C2         33.4554    2.7052   12.0944 C.ar      1 <0>        -0.1150 
      3 C3         33.0673    1.7607   13.0606 C.ar      1 <0>        -0.1150 
      4 C4         34.5561    3.5488   12.3383 C.ar      1 <0>        -0.1150 
      5 C5         33.7828    1.6653   14.2676 C.ar      1 <0>        -0.1150 
      6 C6         36.8385    4.7724   15.0681 C.ar      1 <0>        -0.4470 
      7 C7         38.1891    5.5578   12.7971 C.ar      1 <0>         0.4730 
      8 C8         39.9031    6.9094   14.1414 C.3       1 <0>         0.0430 
      9 C9         40.0025    7.7870   15.4224 C.3       1 <0>        -0.0050 
     10 C10        38.5964    4.9250   20.7155 C.3       1 <0>         0.0025 
     11 C11        37.1029    6.3912   20.6986 C.3       1 <0>         0.0025 
     12 C12        39.4900    7.3301   20.8129 C.2       1 <0>         0.3495 
     13 C13        35.2887    3.4679   13.5467 C.ar      1 <0>        -0.0446 
     14 C14        34.8839    2.5102   14.5102 C.ar      1 <0>         0.2200 
     15 C15        37.9504    5.6262   15.2005 C.ar      1 <0>         0.2920 
     16 C16        36.4470    4.3584   13.7749 C.ar      1 <0>         0.5296 
     17 C17        38.6489    6.0287   14.0414 C.ar      1 <0>        -0.4550 
     18 C18        39.3642    7.1195   16.6152 C.ar      1 <0>        -0.1460 
     19 C19        39.5286    7.3187   18.0213 C.ar      1 <0>        -0.1437 
     20 C20        38.4259    6.1469   16.4650 C.ar      1 <0>        -0.0080 
     21 C21        38.6141    6.3914   18.6352 C.ar      1 <0>        -0.1230 
     22 C22        40.3773    8.2222   18.8429 C.2       1 <0>         0.4577 
     23 C23        38.5325    6.3472   20.1544 C.3       1 <0>         0.1150 
     24 N1         38.0021    5.7406   17.7099 N.pl3     1 <0>        -0.2390 
     25 N2         37.1188    4.7471   12.6651 N.ar      1 <0>        -0.6780 
     26 N3         40.2919    8.1481   20.2368 N.am      1 <0>        -0.5122 
     27 N4         37.4623    5.2735   21.5734 N.4       1 <0>         0.1950 
     28 O1         41.1322    9.0076   18.2744 O.2       1 <0>        -0.2225 
     29 F1         35.5427    2.3962   15.6891 F         1 <0>        -0.2200 
     30 H1         38.6207    6.5534   22.8479 H         1 <0>         0.0600 
     31 H2         38.3660    4.9157   23.4454 H         1 <0>         0.0600 
     32 H3         37.0445    6.0806   23.4767 H         1 <0>         0.0600 
     33 H4         32.9094    2.7846   11.1655 H         1 <0>         0.1150 
     34 H5         32.2221    1.1133   12.8777 H         1 <0>         0.1150 
     35 H6         34.8417    4.2667   11.5830 H         1 <0>         0.1150 
     36 H7         33.4845    0.9437   15.0137 H         1 <0>         0.1150 
     37 H8         36.2887    4.4453   15.9371 H         1 <0>         0.1550 
     38 H9         38.6978    5.8287   11.8837 H         1 <0>         0.0120 
     39 H10        40.7497    6.2219   14.1316 H         1 <0>         0.0600 
     40 H11        40.0063    7.5298   13.2505 H         1 <0>         0.0600 
     41 H12        39.4611    8.7195   15.2607 H         1 <0>         0.0600 
     42 H13        41.0383    8.0554   15.6316 H         1 <0>         0.0600 
     43 H14        39.4786    4.7328   21.3261 H         1 <0>         0.0600 
     44 H15        38.3665    4.1147   20.0236 H         1 <0>         0.0600 
     45 H16        36.3050    6.1385   20.0004 H         1 <0>         0.0600 
     46 H17        36.8877    7.2765   21.2969 H         1 <0>         0.0600 
     47 H18        39.4642    7.3091   21.9033 H         1 <0>         0.0402 
     48 H19        37.3049    5.0287   17.8712 H         1 <0>         0.3170 
     49 H20        36.7728    4.5740   21.8088 H         1 <0>         0.2900 
@<TRIPOS>BOND
     1    1   27 1    
     2    1   30 1    
     3    1   31 1    
     4    1   32 1    
     5    2    3 ar   
     6    2    4 ar   
     7    2   33 1    
     8    3    5 ar   
     9    3   34 1    
    10    4   13 ar   
    11    4   35 1    
    12    5   14 ar   
    13    5   36 1    
    14    6   15 ar   
    15    6   16 ar   
    16    6   37 1    
    17    7   17 ar   
    18    7   25 ar   
    19    7   38 1    
    20    8    9 1    
    21    8   17 1    
    22    8   39 1    
    23    8   40 1    
    24    9   18 1    
    25    9   41 1    
    26    9   42 1    
    27   10   23 1    
    28   10   27 1    
    29   10   43 1    
    30   10   44 1    
    31   11   23 1    
    32   11   27 1    
    33   11   45 1    
    34   11   46 1    
    35   12   23 1    
    36   12   26 2    
    37   12   47 1    
    38   13   14 ar   
    39   13   16 1    
    40   14   29 1    
    41   15   17 ar   
    42   15   20 1    
    43   16   25 ar   
    44   18   19 ar   
    45   18   20 ar   
    46   19   21 ar   
    47   19   22 1    
    48   20   24 ar   
    49   21   23 1    
    50   21   24 ar   
    51   22   26 am   BACKBONE|DICT|INTERRES
    52   22   28 2    
    53   24   48 1    
    54   27   49 1    
@<TRIPOS>SUBSTRUCTURE
     1 <0>         1 GROUP             0       ****    0 ROOT    
@<TRIPOS>MOLECULE
mapk2-ligand
49   54    1
SMALL
USER_CHARGES


@<TRIPOS>ATOM
      1 C1         36.7050    5.1741   23.2994 C.3       1 <0>         0.0900 
      2 C2         33.9565    3.1421   11.7472 C.ar      1 <0>        -0.1150 
      3 C3         33.4620    2.0864   12.5330 C.ar      1 <0>        -0.1150 
      4 C4         35.0093    3.9435   12.2289 C.ar      1 <0>        -0.1150 
      5 C5         34.0234    1.8381   13.7982 C.ar      1 <0>        -0.1150 
      6 C6         36.8833    4.8609   15.3469 C.ar      1 <0>        -0.4470 
      7 C7         38.5778    5.8038   13.3877 C.ar      1 <0>         0.4730 
      8 C8         40.0640    7.0138   15.0903 C.3       1 <0>         0.0430 
      9 C9         39.9638    7.7837   16.4387 C.3       1 <0>        -0.0050 
     10 C10        37.7307    4.5288   21.1930 C.3       1 <0>         0.0025 
     11 C11        36.2642    6.0165   21.0630 C.3       1 <0>         0.0025 
     12 C12        38.6071    6.9030   21.6264 C.2       1 <0>         0.3495 
     13 C13        35.5874    3.7093   13.4996 C.ar      1 <0>        -0.0446 
     14 C14        35.0768    2.6410   14.2788 C.ar      1 <0>         0.2200 
     15 C15        37.9639    5.6825   15.7214 C.ar      1 <0>         0.2920 
     16 C16        36.6988    4.5590   13.9787 C.ar      1 <0>         0.5296 
     17 C17        38.8377    6.1653   14.7230 C.ar      1 <0>        -0.4550 
     18 C18        39.1431    7.0331   17.4579 C.ar      1 <0>        -0.1460 
     19 C19        39.0848    7.1157   18.8839 C.ar      1 <0>        -0.1437 
     20 C20        38.2363    6.0917   17.0833 C.ar      1 <0>        -0.0080 
     21 C21        38.0814    6.1574   19.2688 C.ar      1 <0>        -0.1230 
     22 C22        39.7970    7.9358   19.8998 C.2       1 <0>         0.4577 
     23 C23        37.7614    5.9925   20.7476 C.3       1 <0>         0.1150 
     24 N1         37.6202    5.5937   18.2087 N.pl3     1 <0>        -0.2390 
     25 N2         37.5385    5.0245   13.0235 N.ar      1 <0>        -0.6780 
     26 N3         39.4929    7.7511   21.2522 N.am      1 <0>        -0.5122 
     27 N4         36.4769    4.8261   21.8884 N.4       1 <0>         0.1950 
     28 O1         40.6351    8.7516   19.5230 O.2       1 <0>        -0.2225 
     29 F1         35.5857    2.3779   15.5071 F         1 <0>        -0.2200 
     30 H1         37.4251    5.9796   23.4294 H         1 <0>         0.0600 
     31 H2         37.0732    4.3036   23.8431 H         1 <0>         0.0600 
     32 H3         35.7678    5.4842   23.7626 H         1 <0>         0.0600 
     33 H4         33.5289    3.3391   10.7748 H         1 <0>         0.1150 
     34 H5         32.6530    1.4708   12.1675 H         1 <0>         0.1150 
     35 H6         35.3785    4.7486   11.6100 H         1 <0>         0.1150 
     36 H7         33.6428    1.0305   14.4061 H         1 <0>         0.1150 
     37 H8         36.2023    4.4742   16.0892 H         1 <0>         0.1550 
     38 H9         39.2250    6.1388   12.5906 H         1 <0>         0.0120 
     39 H10        40.8988    6.3153   15.1567 H         1 <0>         0.0600 
     40 H11        40.3086    7.7022   14.2805 H         1 <0>         0.0600 
     41 H12        39.4582    8.7352   16.2714 H         1 <0>         0.0600 
     42 H13        40.9548    8.0170   16.8289 H         1 <0>         0.0600 
     43 H14        38.5049    4.2734   21.9165 H         1 <0>         0.0600 
     44 H15        37.6094    3.7808   20.4095 H         1 <0>         0.0600 
     45 H16        35.5851    5.8343   20.2300 H         1 <0>         0.0600 
     46 H17        35.9608    6.8542   21.6908 H         1 <0>         0.0600 
     47 H18        38.4099    6.7947   22.6939 H         1 <0>         0.0402 
     48 H19        36.9035    4.8828   18.1998 H         1 <0>         0.3170 
     49 H20        35.7563    4.1215   21.9547 H         1 <0>         0.2900 
@<TRIPOS>BOND
     1    1   27 1    
     2    1   30 1    
     3    1   31 1    
     4    1   32 1    
     5    2    3 ar   
     6    2    4 ar   
     7    2   33 1    
     8    3    5 ar   
     9    3   34 1    
    10    4   13 ar   
    11    4   35 1    
    12    5   14 ar   
    13    5   36 1    
    14    6   15 ar   
    15    6   16 ar   
    16    6   37 1    
    17    7   17 ar   
    18    7   25 ar   
    19    7   38 1    
    20    8    9 1    
    21    8   17 1    
    22    8   39 1    
    23    8   40 1    
    24    9   18 1    
    25    9   41 1    
    26    9   42 1    
    27   10   23 1    
    28   10   27 1    
    29   10   43 1    
    30   10   44 1    
    31   11   23 1    
    32   11   27 1    
    33   11   45 1    
    34   11   46 1    
    35   12   23 1    
    36   12   26 2    
    37   12   47 1    
    38   13   14 ar   
    39   13   16 1    
    40   14   29 1    
    41   15   17 ar   
    42   15   20 1    
    43   16   25 ar   
    44   18   19 ar   
    45   18   20 ar   
    46   19   21 ar   
    47   19   22 1    
    48   20   24 ar   
    49   21   23 1    
    50   21   24 ar   
    51   22   26 am   BACKBONE|DICT|INTERRES
    52   22   28 2    
    53   24   48 1    
    54   27   49 1    
@<TRIPOS>SUBSTRUCTURE
     1 <0>         1 GROUP             0       ****    0 ROOT    
@<TRIPOS>MOLECULE
mapk2-ligand
49   54    1
SMALL
USER_CHARGES


@<TRIPOS>ATOM
      1 C1         36.7835    3.8108   22.1391 C.3       1 <0>         0.0900 
      2 C2         33.9116    1.8187   14.3978 C.ar      1 <0>        -0.1150 
      3 C3         33.2648    1.8464   13.1519 C.ar      1 <0>        -0.1150 
      4 C4         35.0118    2.6633   14.6375 C.ar      1 <0>        -0.1150 
      5 C5         33.7290    2.7136   12.1490 C.ar      1 <0>        -0.1150 
      6 C6         36.9265    4.8832   15.2593 C.ar      1 <0>        -0.4470 
      7 C7         38.5127    5.5596   13.1170 C.ar      1 <0>         0.4730 
      8 C8         40.1714    6.8453   14.5802 C.3       1 <0>         0.0430 
      9 C9         40.2056    7.7271   15.8597 C.3       1 <0>        -0.0050 
     10 C10        38.7608    5.0126   21.1718 C.3       1 <0>         0.0025 
     11 C11        36.9738    6.0169   20.9980 C.3       1 <0>         0.0025 
     12 C12        39.0286    7.5595   21.1305 C.2       1 <0>         0.3495 
     13 C13        35.4931    3.5525   13.6456 C.ar      1 <0>        -0.0446 
     14 C14        34.8333    3.5524   12.3876 C.ar      1 <0>         0.2200 
     15 C15        38.0694    5.6739   15.4808 C.ar      1 <0>         0.2920 
     16 C16        36.6438    4.4403   13.9458 C.ar      1 <0>         0.5296 
     17 C17        38.8872    6.0256   14.3857 C.ar      1 <0>        -0.4550 
     18 C18        39.4487    7.0874   16.9964 C.ar      1 <0>        -0.1460 
     19 C19        39.5229    7.2675   18.4087 C.ar      1 <0>        -0.1437 
     20 C20        38.4716    6.1684   16.7777 C.ar      1 <0>        -0.0080 
     21 C21        38.6104    6.4391   18.9982 C.ar      1 <0>        -0.1230 
     22 C22        40.3374    8.1375   19.2935 C.2       1 <0>         0.4577 
     23 C23        38.3817    6.3268   20.4729 C.3       1 <0>         0.1150 
     24 N1         37.9452    5.7704   17.9871 N.pl3     1 <0>        -0.2390 
     25 N2         37.4300    4.7925   12.9015 N.ar      1 <0>        -0.6780 
     26 N3         39.8932    8.3516   20.6001 N.am      1 <0>        -0.5122 
     27 N4         37.3628    4.6052   21.0344 N.4       1 <0>         0.1950 
     28 O1         41.3313    8.7019   18.8400 O.2       1 <0>        -0.2225 
     29 F1         35.2464    4.3523   11.3782 F         1 <0>        -0.2200 
     30 H1         37.0761    4.1981   23.1162 H         1 <0>         0.0600 
     31 H2         37.0928    2.7691   22.0737 H         1 <0>         0.0600 
     32 H3         35.6945    3.8261   22.0778 H         1 <0>         0.0600 
     33 H4         33.5627    1.1528   15.1740 H         1 <0>         0.1150 
     34 H5         32.4187    1.2015   12.9632 H         1 <0>         0.1150 
     35 H6         35.4905    2.6107   15.6037 H         1 <0>         0.1150 
     36 H7         33.2424    2.7304   11.1853 H         1 <0>         0.1150 
     37 H8         36.2770    4.6224   16.0807 H         1 <0>         0.1550 
     38 H9         39.0991    5.8059   12.2416 H         1 <0>         0.0120 
     39 H10        40.9788    6.1160   14.6464 H         1 <0>         0.0600 
     40 H11        40.3816    7.4497   13.6966 H         1 <0>         0.0600 
     41 H12        39.7185    8.6802   15.6524 H         1 <0>         0.0600 
     42 H13        41.2317    7.9528   16.1502 H         1 <0>         0.0600 
     43 H14        39.0748    5.1436   22.2082 H         1 <0>         0.0600 
     44 H15        39.4607    4.3818   20.6221 H         1 <0>         0.0600 
     45 H16        36.1638    6.2294   20.2999 H         1 <0>         0.0600 
     46 H17        36.7614    6.4209   21.9921 H         1 <0>         0.0600 
     47 H18        38.6956    7.7356   22.1573 H         1 <0>         0.0402 
     48 H19        37.1995    5.0982   18.0843 H         1 <0>         0.3170 
     49 H20        37.2144    4.1594   20.1412 H         1 <0>         0.2900 
@<TRIPOS>BOND
     1    1   27 1    
     2    1   30 1    
     3    1   31 1    
     4    1   32 1    
     5    2    3 ar   
     6    2    4 ar   
     7    2   33 1    
     8    3    5 ar   
     9    3   34 1    
    10    4   13 ar   
    11    4   35 1    
    12    5   14 ar   
    13    5   36 1    
    14    6   15 ar   
    15    6   16 ar   
    16    6   37 1    
    17    7   17 ar   
    18    7   25 ar   
    19    7   38 1    
    20    8    9 1    
    21    8   17 1    
    22    8   39 1    
    23    8   40 1    
    24    9   18 1    
    25    9   41 1    
    26    9   42 1    
    27   10   23 1    
    28   10   27 1    
    29   10   43 1    
    30   10   44 1    
    31   11   23 1    
    32   11   27 1    
    33   11   45 1    
    34   11   46 1    
    35   12   23 1    
    36   12   26 2    
    37   12   47 1    
    38   13   14 ar   
    39   13   16 1    
    40   14   29 1    
    41   15   17 ar   
    42   15   20 1    
    43   16   25 ar   
    44   18   19 ar   
    45   18   20 ar   
    46   19   21 ar   
    47   19   22 1    
    48   20   24 ar   
    49   21   23 1    
    50   21   24 ar   
    51   22   26 am   BACKBONE|DICT|INTERRES
    52   22   28 2    
    53   24   48 1    
    54   27   49 1    
@<TRIPOS>SUBSTRUCTURE
     1 <0>         1 GROUP             0       ****    0 ROOT    
