@<TRIPOS>MOLECULE
mcr-ligand
54   58    1
SMALL
USER_CHARGES


@<TRIPOS>ATOM
      1 C1         19.0392   69.4606   20.0932 C.3       1 <0>        -0.1800 
      2 C2         21.0244   74.6898   20.5560 C.3       1 <0>        -0.1200 
      3 C3         20.4499   75.8799   21.3217 C.3       1 <0>        -0.1200 
      4 C4         20.9274   72.3384   18.4054 C.3       1 <0>        -0.1200 
      5 C5         21.1070   70.8597   18.0643 C.3       1 <0>        -0.1200 
      6 C6         17.2947   68.6992   17.5463 C.3       1 <0>        -0.1200 
      7 C7         17.2890   70.0114   18.3166 C.3       1 <0>        -0.1200 
      8 C8         17.3702   73.7123   20.6091 C.3       1 <0>        -0.1200 
      9 C9         19.5799   69.4661   16.6885 C.2       1 <0>        -0.1150 
     10 C10        16.8835   76.4500   23.0009 C.3       1 <0>         0.1450 
     11 C11        20.0058   72.4852   19.6215 C.3       1 <0>        -0.0600 
     12 C12        19.7957   73.9439   20.0519 C.3       1 <0>        -0.0600 
     13 C13        18.9247   75.6329   21.5085 C.3       1 <0>        -0.0600 
     14 C14        17.6392   72.2047   20.5090 C.3       1 <0>         0.1700 
     15 C15        18.6160   71.8760   19.3337 C.3       1 <0>        -0.0600 
     16 C16        18.8846   73.0613   22.2616 C.3       1 <0>         0.2647 
     17 C17        19.7666   70.1870   17.8123 C.2       1 <0>         0.0000 
     18 C18        18.3276   68.7526   16.4303 C.2       1 <0>         0.4700 
     19 C19        18.3671   76.1470   22.8369 C.2       1 <0>         0.4700 
     20 C20        18.6840   70.3806   18.8986 C.3       1 <0>         0.0000 
     21 C21        18.7136   74.1399   21.1464 C.3       1 <0>         0.0000 
     22 O1         16.5318   76.3523   24.3682 O.3       1 <0>        -0.6830 
     23 O2         18.3276   73.3726   23.5148 O.3       1 <0>        -0.5827 
     24 O3         18.0772   68.2122   15.3557 O.2       1 <0>        -0.4700 
     25 O4         19.1272   76.3525   23.7670 O.2       1 <0>        -0.4700 
     26 O5         18.2897   71.9064   21.7465 O.3       1 <0>        -0.4000 
     27 H1         20.0207   69.6861   20.5087 H         1 <0>         0.0600 
     28 H2         18.3285   69.5536   20.9103 H         1 <0>         0.0600 
     29 H3         19.0477   68.4096   19.8089 H         1 <0>         0.0600 
     30 H4         21.6988   74.9927   19.7559 H         1 <0>         0.0600 
     31 H5         21.5996   74.0562   21.2327 H         1 <0>         0.0600 
     32 H6         21.0006   75.9523   22.2584 H         1 <0>         0.0600 
     33 H7         20.6196   76.8051   20.7723 H         1 <0>         0.0600 
     34 H8         21.9020   72.7851   18.6032 H         1 <0>         0.0600 
     35 H9         20.5020   72.8620   17.5500 H         1 <0>         0.0600 
     36 H10        21.7561   70.7582   17.1934 H         1 <0>         0.0600 
     37 H11        21.6143   70.3479   18.8830 H         1 <0>         0.0600 
     38 H12        17.5498   67.8947   18.2292 H         1 <0>         0.0600 
     39 H13        16.3094   68.4848   17.1341 H         1 <0>         0.0600 
     40 H14        16.9422   70.7924   17.6382 H         1 <0>         0.0600 
     41 H15        16.5320   69.9526   19.0915 H         1 <0>         0.0600 
     42 H16        17.1276   74.1899   19.6605 H         1 <0>         0.0600 
     43 H17        16.5624   73.9120   21.3135 H         1 <0>         0.0600 
     44 H18        20.3715   69.3636   15.9620 H         1 <0>         0.1150 
     45 H19        16.7153   77.4768   22.6788 H         1 <0>         0.0600 
     46 H20        16.2648   75.7853   22.4010 H         1 <0>         0.0600 
     47 H21        20.4798   71.9449   20.4407 H         1 <0>         0.0600 
     48 H22        19.4390   74.4789   19.1720 H         1 <0>         0.0600 
     49 H23        18.4185   76.2123   20.7364 H         1 <0>         0.0600 
     50 H24        16.7068   71.6543   20.4341 H         1 <0>         0.0300 
     51 H25        18.2318   72.4164   18.4659 H         1 <0>         0.0600 
     52 H26        19.9275   72.8809   22.4524 H         1 <0>         0.1000 
     53 H27        17.1672   76.8497   24.8729 H         1 <0>         0.4180 
     54 H28        17.3684   73.3752   23.4504 H         1 <0>         0.4180 
@<TRIPOS>BOND
     1    1   20 1    
     2    1   27 1    
     3    1   28 1    
     4    1   29 1    
     5    2    3 1    
     6    2   12 1    
     7    2   30 1    
     8    2   31 1    
     9    3   13 1    
    10    3   32 1    
    11    3   33 1    
    12    4    5 1    
    13    4   11 1    
    14    4   34 1    
    15    4   35 1    
    16    5   17 1    
    17    5   36 1    
    18    5   37 1    
    19    6    7 1    
    20    6   18 1    
    21    6   38 1    
    22    6   39 1    
    23    7   20 1    
    24    7   40 1    
    25    7   41 1    
    26    8   14 1    
    27    8   21 1    
    28    8   42 1    
    29    8   43 1    
    30    9   17 2    
    31    9   18 1    
    32    9   44 1    
    33   10   19 1    
    34   10   22 1    
    35   10   45 1    
    36   10   46 1    
    37   11   12 1    
    38   11   15 1    
    39   11   47 1    
    40   12   21 1    
    41   12   48 1    
    42   13   19 1    
    43   13   21 1    
    44   13   49 1    
    45   14   15 1    
    46   14   26 1    
    47   14   50 1    
    48   15   20 1    
    49   15   51 1    
    50   16   21 1    
    51   16   23 1    
    52   16   26 1    
    53   16   52 1    
    54   17   20 1    
    55   18   24 2    
    56   19   25 2    
    57   22   53 1    
    58   23   54 1    
@<TRIPOS>SUBSTRUCTURE
     1 <0>         1 GROUP             0       ****    0 ROOT    
@<TRIPOS>MOLECULE
mcr-ligand
54   58    1
SMALL
USER_CHARGES


@<TRIPOS>ATOM
      1 C1         19.0476   69.4669   20.0884 C.3       1 <0>        -0.1800 
      2 C2         21.0405   74.6814   20.5555 C.3       1 <0>        -0.1200 
      3 C3         20.4686   75.8758   21.3167 C.3       1 <0>        -0.1200 
      4 C4         20.9368   72.3348   18.3957 C.3       1 <0>        -0.1200 
      5 C5         21.1133   70.8557   18.0546 C.3       1 <0>        -0.1200 
      6 C6         17.2997   68.6961   17.5485 C.3       1 <0>        -0.1200 
      7 C7         17.2941   70.0103   18.3144 C.3       1 <0>        -0.1200 
      8 C8         17.3790   73.7178   20.5938 C.3       1 <0>        -0.1200 
      9 C9         19.5811   69.4636   16.6819 C.2       1 <0>        -0.1150 
     10 C10        16.8916   76.4533   22.9555 C.3       1 <0>         0.1450 
     11 C11        20.0149   72.4836   19.6113 C.3       1 <0>        -0.0600 
     12 C12        19.8099   73.9423   20.0432 C.3       1 <0>        -0.0600 
     13 C13        18.9424   75.6327   21.4943 C.3       1 <0>        -0.0600 
     14 C14        17.6441   72.2102   20.4934 C.3       1 <0>         0.1700 
     15 C15        18.6232   71.8786   19.3214 C.3       1 <0>        -0.0600 
     16 C16        18.8870   73.0614   22.2492 C.3       1 <0>         0.2647 
     17 C17        19.7708   70.1860   17.8041 C.2       1 <0>         0.0000 
     18 C18        18.3276   68.7508   16.4284 C.2       1 <0>         0.4700 
     19 C19        18.3768   76.1488   22.8167 C.2       1 <0>         0.4700 
     20 C20        18.6900   70.3824   18.8915 C.3       1 <0>         0.0000 
     21 C21        18.7243   74.1407   21.1330 C.3       1 <0>         0.0000 
     22 O1         16.5129   76.3523   24.3119 O.3       1 <0>        -0.6830 
     23 O2         18.3276   73.3759   23.5006 O.3       1 <0>        -0.5827 
     24 O3         18.0730   68.2104   15.3555 O.2       1 <0>        -0.4700 
     25 O4         19.1276   76.3523   23.7555 O.2       1 <0>        -0.4700 
     26 O5         18.2888   71.9090   21.7329 O.3       1 <0>        -0.4000 
     27 H1         20.0234   69.7035   20.5114 H         1 <0>         0.0600 
     28 H2         18.3277   69.5523   20.8987 H         1 <0>         0.0600 
     29 H3         19.0756   68.4167   19.8015 H         1 <0>         0.0600 
     30 H4         21.7180   74.9804   19.7556 H         1 <0>         0.0600 
     31 H5         21.6095   74.0456   21.2355 H         1 <0>         0.0600 
     32 H6         21.0145   75.9523   22.2561 H         1 <0>         0.0600 
     33 H7         20.6425   76.7998   20.7657 H         1 <0>         0.0600 
     34 H8         21.9119   72.7806   18.5939 H         1 <0>         0.0600 
     35 H9         20.5126   72.8587   17.5400 H         1 <0>         0.0600 
     36 H10        21.7616   70.7523   17.1833 H         1 <0>         0.0600 
     37 H11        21.6192   70.3421   18.8729 H         1 <0>         0.0600 
     38 H12        17.5599   67.8941   18.2324 H         1 <0>         0.0600 
     39 H13        16.3129   68.4772   17.1409 H         1 <0>         0.0600 
     40 H14        16.9448   70.7892   17.6350 H         1 <0>         0.0600 
     41 H15        16.5388   69.9523   19.0913 H         1 <0>         0.0600 
     42 H16        17.1288   74.1963   19.6473 H         1 <0>         0.0600 
     43 H17        16.5723   73.9143   21.3001 H         1 <0>         0.0600 
     44 H18        20.3712   69.3578   15.9544 H         1 <0>         0.1150 
     45 H19        16.7276   77.4775   22.6243 H         1 <0>         0.0600 
     46 H20        16.2841   75.7876   22.3452 H         1 <0>         0.0600 
     47 H21        20.4870   71.9418   20.4306 H         1 <0>         0.0600 
     48 H22        19.4585   74.4788   19.1626 H         1 <0>         0.0600 
     49 H23        18.4420   76.2125   20.7187 H         1 <0>         0.0600 
     50 H24        16.7101   71.6633   20.4165 H         1 <0>         0.0300 
     51 H25        18.2413   72.4186   18.4527 H         1 <0>         0.0600 
     52 H26        19.9276   72.8740   22.4441 H         1 <0>         0.1000 
     53 H27        17.1407   76.8450   24.8304 H         1 <0>         0.4180 
     54 H28        17.3685   73.3792   23.4343 H         1 <0>         0.4180 
@<TRIPOS>BOND
     1    1   20 1    
     2    1   27 1    
     3    1   28 1    
     4    1   29 1    
     5    2    3 1    
     6    2   12 1    
     7    2   30 1    
     8    2   31 1    
     9    3   13 1    
    10    3   32 1    
    11    3   33 1    
    12    4    5 1    
    13    4   11 1    
    14    4   34 1    
    15    4   35 1    
    16    5   17 1    
    17    5   36 1    
    18    5   37 1    
    19    6    7 1    
    20    6   18 1    
    21    6   38 1    
    22    6   39 1    
    23    7   20 1    
    24    7   40 1    
    25    7   41 1    
    26    8   14 1    
    27    8   21 1    
    28    8   42 1    
    29    8   43 1    
    30    9   17 2    
    31    9   18 1    
    32    9   44 1    
    33   10   19 1    
    34   10   22 1    
    35   10   45 1    
    36   10   46 1    
    37   11   12 1    
    38   11   15 1    
    39   11   47 1    
    40   12   21 1    
    41   12   48 1    
    42   13   19 1    
    43   13   21 1    
    44   13   49 1    
    45   14   15 1    
    46   14   26 1    
    47   14   50 1    
    48   15   20 1    
    49   15   51 1    
    50   16   21 1    
    51   16   23 1    
    52   16   26 1    
    53   16   52 1    
    54   17   20 1    
    55   18   24 2    
    56   19   25 2    
    57   22   53 1    
    58   23   54 1    
@<TRIPOS>SUBSTRUCTURE
     1 <0>         1 GROUP             0       ****    0 ROOT    
