@<TRIPOS>MOLECULE
met-ligand
81   86    1
SMALL
USER_CHARGES


@<TRIPOS>ATOM
      1 C1          1.9563    0.9019   -8.8535 C.3       1 cry         0.1100 
      2 C2         -9.4694    3.9802    1.8199 C.ar      1 cry        -0.1150 
      3 C3        -10.2632    1.9937    0.6505 C.ar      1 cry        -0.1150 
      4 C4        -10.4194    3.7682    2.8362 C.ar      1 cry        -0.1150 
      5 C5        -11.2165    1.7841    1.6680 C.ar      1 cry        -0.1150 
      6 C6         -3.6236    2.0945   -4.9434 C.ar      1 cry        -0.1150 
      7 C7         -2.2377    1.9341   -5.1577 C.ar      1 cry        -0.1150 
      8 C8          0.6690    1.2900   -2.5078 C.ar      1 cry        -0.4849 
      9 C9          1.3353    0.2020   -1.9236 C.ar      1 cry         0.4305 
     10 C10        -3.1519    3.5745   -3.0661 C.ar      1 cry        -0.1150 
     11 C11         1.5316    0.6016   -6.0627 C.ar      1 cry        -0.1673 
     12 C12         2.6876   -1.5852   -4.7525 C.ar      1 cry        -0.4407 
     13 C13        -7.3224    5.3508   -2.2726 C.3       1 cry        -0.1200 
     14 C14        -7.8526    4.7319   -3.5447 C.3       1 cry        -0.1200 
     15 C15        -1.9022   -4.3905   -7.6557 C.3       1 cry        -0.0744 
     16 C16        -2.1503   -2.5271   -6.1071 C.3       1 cry        -0.0744 
     17 C17        -3.1326   -5.0459   -6.9992 C.3       1 cry         0.3644 
     18 C18        -3.3535   -3.2504   -5.4812 C.3       1 cry         0.3644 
     19 C19         1.2268   -3.8585   -7.2628 C.3       1 cry        -0.1200 
     20 C20         0.0291   -2.8864   -7.2042 C.3       1 cry         0.1500 
     21 C21         2.5331   -3.2287   -7.7995 C.3       1 cry         0.1400 
     22 C22        -9.3932    3.1082    0.7117 C.ar      1 cry         0.0850 
     23 C23       -11.3028    2.6773    2.7530 C.ar      1 cry         0.2200 
     24 C24        -4.0863    2.8879   -3.8716 C.ar      1 cry         0.0850 
     25 C25        -1.3073    2.5940   -4.3259 C.ar      1 cry         0.0850 
     26 C26         0.6875    1.4246   -3.9106 C.ar      1 cry         0.2811 
     27 C27         1.4126    0.4733   -4.6625 C.ar      1 cry        -0.1736 
     28 C28         2.0281   -0.6112   -3.9835 C.ar      1 cry         0.7341 
     29 C29         2.2268   -0.3690   -6.8245 C.ar      1 cry         0.0494 
     30 C30         2.7519   -1.5026   -6.1544 C.ar      1 cry         0.1955 
     31 C31        -1.7729    3.4297   -3.2931 C.ar      1 cry         0.2200 
     32 C32        -8.4280    3.1073   -1.5964 C.2       1 cry         0.5000 
     33 C33        -6.0895    3.0787   -2.4577 C.2       1 cry         0.5000 
     34 C34        -7.3924    3.8388   -2.4013 C.3       1 cry         0.0000 
     35 N1          2.0133   -0.7191   -2.6366 N.ar      1 cry        -0.7311 
     36 N2         -8.4229    3.4102   -0.2817 N.am      1 cry        -0.3850 
     37 N3         -5.4788    3.0645   -3.6601 N.am      1 cry        -0.3850 
     38 N4         -1.2070   -3.5133   -6.6823 N.4       1 cry        -0.1000 
     39 O1         -9.2100    2.3207   -2.1293 O.2       1 cry        -0.5000 
     40 O2         -5.6232    2.4869   -1.4818 O.2       1 cry        -0.5000 
     41 O3         -3.9946   -4.0405   -6.4757 O.3       1 cry        -0.4000 
     42 O4          2.3992   -0.2766   -8.1886 O.3       1 cry        -0.3000 
     43 O5          3.3225   -2.5661   -6.8081 O.3       1 cry        -0.3000 
     44 O6          0.0426    2.4643   -4.5362 O.3       1 cry        -0.1850 
     45 F1        -12.2338    2.4871    3.7167 F         1 cry        -0.2200 
     46 F2         -0.8872    4.0869   -2.5092 F         1 cry        -0.2200 
     47 H1          2.2199    0.8388   -9.9093 H         1 cry         0.0300 
     48 H2          0.8705    1.0122   -8.7938 H         1 cry         0.0300 
     49 H3          2.4372    1.7944   -8.4435 H         1 cry         0.0300 
     50 H4         -8.8085    4.8325    1.8890 H         1 cry         0.1150 
     51 H5        -10.2168    1.2905   -0.1664 H         1 cry         0.1150 
     52 H6        -10.4780    4.4484    3.6731 H         1 cry         0.1150 
     53 H7        -11.8874    0.9410    1.6102 H         1 cry         0.1150 
     54 H8         -4.3272    1.5880   -5.5886 H         1 cry         0.1150 
     55 H9         -1.8870    1.3093   -5.9656 H         1 cry         0.1150 
     56 H10         0.1447    1.9954   -1.8800 H         1 cry         0.1970 
     57 H11         1.3310    0.0877   -0.8520 H         1 cry         0.0550 
     58 H12        -3.4852    4.2242   -2.2708 H         1 cry         0.1150 
     59 H13         1.0766    1.4548   -6.5406 H         1 cry         0.1528 
     60 H14         3.0831   -2.4622   -4.2644 H         1 cry         0.2022 
     61 H15        -8.0392    5.8465   -1.6203 H         1 cry         0.0600 
     62 H16        -6.3366    5.8126   -2.2967 H         1 cry         0.0600 
     63 H17        -7.2380    4.8241   -4.4376 H         1 cry         0.0600 
     64 H18        -8.9239    4.7949   -3.7278 H         1 cry         0.0600 
     65 H19        -1.2297   -5.1698   -8.0156 H         1 cry         0.0600 
     66 H20        -2.2083   -3.8063   -8.5249 H         1 cry         0.0600 
     67 H21        -2.4848   -1.8353   -6.8811 H         1 cry         0.0600 
     68 H22        -1.6407   -1.9375   -5.3446 H         1 cry         0.0600 
     69 H23        -3.6827   -5.6276   -7.7397 H         1 cry         0.0300 
     70 H24        -2.8374   -5.7433   -6.2137 H         1 cry         0.0300 
     71 H25        -4.0674   -2.5208   -5.0970 H         1 cry         0.0300 
     72 H26        -3.0470   -3.8700   -4.6368 H         1 cry         0.0300 
     73 H27         1.4072   -4.2998   -6.2814 H         1 cry         0.0600 
     74 H28         0.9696   -4.6876   -7.9211 H         1 cry         0.0600 
     75 H29        -0.1601   -2.4346   -8.1787 H         1 cry         0.0600 
     76 H30         0.2702   -2.0738   -6.5263 H         1 cry         0.0600 
     77 H31         3.1626   -4.0377   -8.1708 H         1 cry         0.0300 
     78 H32         2.3400   -2.6073   -8.6721 H         1 cry         0.0300 
     79 H33        -7.7058    4.0633    0.0135 H         1 cry         0.3000 
     80 H34        -6.0190    3.3601   -4.4597 H         1 cry         0.3000 
     81 H35        -0.9245   -4.1074   -5.8997 H         1 cry         0.2900 
@<TRIPOS>BOND
     1    1   42 1    
     2    1   47 1    
     3    1   48 1    
     4    1   49 1    
     5    2    4 ar   
     6    2   22 ar   
     7    2   50 1    
     8    3    5 ar   
     9    3   22 ar   
    10    3   51 1    
    11    4   23 ar   
    12    4   52 1    
    13    5   23 ar   
    14    5   53 1    
    15    6    7 ar   
    16    6   24 ar   
    17    6   54 1    
    18    7   25 ar   
    19    7   55 1    
    20    8    9 ar   
    21    8   26 ar   
    22    8   56 1    
    23    9   35 ar   
    24    9   57 1    
    25   10   24 ar   
    26   10   31 ar   
    27   10   58 1    
    28   11   27 ar   
    29   11   29 ar   
    30   11   59 1    
    31   12   28 ar   
    32   12   30 ar   
    33   12   60 1    
    34   13   14 1    
    35   13   34 1    
    36   13   61 1    
    37   13   62 1    
    38   14   34 1    
    39   14   63 1    
    40   14   64 1    
    41   15   17 1    
    42   15   38 1    
    43   15   65 1    
    44   15   66 1    
    45   16   18 1    
    46   16   38 1    
    47   16   67 1    
    48   16   68 1    
    49   17   41 1    
    50   17   69 1    
    51   17   70 1    
    52   18   41 1    
    53   18   71 1    
    54   18   72 1    
    55   19   20 1    
    56   19   21 1    
    57   19   73 1    
    58   19   74 1    
    59   20   38 1    
    60   20   75 1    
    61   20   76 1    
    62   21   43 1    
    63   21   77 1    
    64   21   78 1    
    65   22   36 1    
    66   23   45 1    
    67   24   37 1    
    68   25   31 ar   
    69   25   44 1    
    70   26   27 ar   
    71   26   44 1    
    72   27   28 ar   
    73   28   35 ar   
    74   29   30 ar   
    75   29   42 1    
    76   30   43 1    
    77   31   46 1    
    78   32   34 1    
    79   32   36 am   BACKBONE|DICT|INTERRES
    80   32   39 2    
    81   33   34 1    
    82   33   37 am   BACKBONE|DICT|INTERRES
    83   33   40 2    
    84   36   79 1    
    85   37   80 1    
    86   38   81 1    
@<TRIPOS>SUBSTRUCTURE
     1 cry         1 GROUP             0 A     ****    0 ROOT    
@<TRIPOS>MOLECULE
met-ligand
81   86    1
SMALL
USER_CHARGES


@<TRIPOS>ATOM
      1 C1          4.2508   -0.1797   -8.8119 C.3       1 cry         0.1100 
      2 C2         -9.2774    2.2044    0.0204 C.ar      1 cry        -0.1150 
      3 C3         -9.6266    4.4580    0.8901 C.ar      1 cry        -0.1150 
      4 C4        -10.1092    1.6874    1.0340 C.ar      1 cry        -0.1150 
      5 C5        -10.4542    3.9388    1.9031 C.ar      1 cry        -0.1150 
      6 C6         -2.8579    2.7800   -4.5879 C.ar      1 cry        -0.1150 
      7 C7         -1.5576    2.3564   -4.9157 C.ar      1 cry        -0.1150 
      8 C8          1.0564    0.8034   -2.5818 C.ar      1 cry        -0.4849 
      9 C9          1.5719   -0.4181   -2.1159 C.ar      1 cry         0.4305 
     10 C10        -1.9607    4.0869   -2.7454 C.ar      1 cry        -0.1150 
     11 C11         2.1308    0.5019   -6.1368 C.ar      1 cry        -0.1673 
     12 C12         3.0140   -1.9278   -5.0569 C.ar      1 cry        -0.4407 
     13 C13        -6.6612    6.0840   -2.6818 C.3       1 cry        -0.1200 
     14 C14        -7.6367    5.4519   -3.6484 C.3       1 cry        -0.1200 
     15 C15        -2.0543   -3.8858   -6.9119 C.3       1 cry        -0.0744 
     16 C16        -0.4018   -2.1286   -6.8011 C.3       1 cry        -0.0744 
     17 C17        -2.8594   -3.1377   -5.8272 C.3       1 cry         0.3644 
     18 C18        -1.1830   -1.4931   -5.6565 C.3       1 cry         0.3644 
     19 C19         1.7576   -4.3125   -7.2527 C.3       1 cry        -0.1200 
     20 C20         0.2689   -4.3666   -7.6682 C.3       1 cry         0.1500 
     21 C21         2.6107   -3.2884   -8.0361 C.3       1 cry         0.1400 
     22 C22        -9.0314    3.5949   -0.0535 C.ar      1 cry         0.0850 
     23 C23       -10.7004    2.5560    1.9699 C.ar      1 cry         0.2200 
     24 C24        -3.0736    3.6505   -3.4917 C.ar      1 cry         0.0850 
     25 C25        -0.4581    2.7721   -4.1422 C.ar      1 cry         0.0850 
     26 C26         1.2161    1.1315   -3.9431 C.ar      1 cry         0.2811 
     27 C27         1.9055    0.2169   -4.7734 C.ar      1 cry        -0.1736 
     28 C28         2.3771   -0.9998   -4.2115 C.ar      1 cry         0.7341 
     29 C29         2.7887   -0.4246   -6.9677 C.ar      1 cry         0.0494 
     30 C30         3.1809   -1.6790   -6.4315 C.ar      1 cry         0.1955 
     31 C31        -0.6590    3.6565   -3.0637 C.ar      1 cry         0.2200 
     32 C32        -7.2142    3.6725   -1.7592 C.2       1 cry         0.5000 
     33 C33        -5.5661    3.9196   -3.6165 C.2       1 cry         0.5000 
     34 C34        -6.6790    4.5763   -2.8562 C.3       1 cry         0.0000 
     35 N1          2.2446   -1.2826   -2.8992 N.ar      1 cry        -0.7311 
     36 N2         -8.2611    4.1887   -1.0855 N.am      1 cry        -0.3850 
     37 N3         -4.3480    4.1291   -3.0814 N.am      1 cry        -0.3850 
     38 N4         -0.6116   -3.5862   -6.7588 N.4       1 cry        -0.1000 
     39 O1         -6.7183    2.5781   -1.4794 O.2       1 cry        -0.5000 
     40 O2         -5.7857    3.2736   -4.6400 O.2       1 cry        -0.5000 
     41 O3         -2.5660   -1.7455   -5.8817 O.3       1 cry        -0.4000 
     42 O4          2.9300   -0.1000   -8.2938 O.3       1 cry        -0.3000 
     43 O5          3.6289   -2.7122   -7.2171 O.3       1 cry        -0.3000 
     44 O6          0.8044    2.3410   -4.4494 O.3       1 cry        -0.1850 
     45 F1        -11.5251    2.0619    2.9220 F         1 cry        -0.2200 
     46 F2          0.3933    4.0794   -2.3221 F         1 cry        -0.2200 
     47 H1          4.2488    0.1760   -9.8438 H         1 cry         0.0300 
     48 H2          4.9316    0.4580   -8.2436 H         1 cry         0.0300 
     49 H3          4.6467   -1.1956   -8.8215 H         1 cry         0.0300 
     50 H4         -8.8550    1.5248   -0.7063 H         1 cry         0.1150 
     51 H5         -9.4485    5.5227    0.8412 H         1 cry         0.1150 
     52 H6        -10.3038    0.6273    1.0798 H         1 cry         0.1150 
     53 H7        -10.9088    4.6035    2.6226 H         1 cry         0.1150 
     54 H8         -3.6666    2.4203   -5.2027 H         1 cry         0.1150 
     55 H9         -1.4056    1.7139   -5.7668 H         1 cry         0.1150 
     56 H10         0.5455    1.4631   -1.8975 H         1 cry         0.1970 
     57 H11         1.4485   -0.7023   -1.0858 H         1 cry         0.0550 
     58 H12        -2.0990    4.7539   -1.9086 H         1 cry         0.1150 
     59 H13         1.7843    1.4305   -6.5679 H         1 cry         0.1528 
     60 H14         3.2946   -2.8915   -4.6596 H         1 cry         0.2022 
     61 H15        -7.0412    6.4873   -1.7453 H         1 cry         0.0600 
     62 H16        -5.8202    6.6342   -3.0989 H         1 cry         0.0600 
     63 H17        -7.4415    5.5752   -4.7119 H         1 cry         0.0600 
     64 H18        -8.6935    5.4435   -3.3854 H         1 cry         0.0600 
     65 H19        -2.2264   -4.9573   -6.8140 H         1 cry         0.0600 
     66 H20        -2.3921   -3.5918   -7.9066 H         1 cry         0.0600 
     67 H21        -0.6960   -1.7154   -7.7651 H         1 cry         0.0600 
     68 H22         0.6407   -1.9051   -6.6549 H         1 cry         0.0600 
     69 H23        -3.9260   -3.2832   -5.9846 H         1 cry         0.0300 
     70 H24        -2.6338   -3.5130   -4.8284 H         1 cry         0.0300 
     71 H25        -1.0061   -0.4212   -5.6367 H         1 cry         0.0300 
     72 H26        -0.8302   -1.8985   -4.6985 H         1 cry         0.0300 
     73 H27         1.8201   -4.1443   -6.1768 H         1 cry         0.0600 
     74 H28         2.2027   -5.2957   -7.4007 H         1 cry         0.0600 
     75 H29        -0.0521   -5.4083   -7.6096 H         1 cry         0.0600 
     76 H30         0.1268   -4.0651   -8.7060 H         1 cry         0.0600 
     77 H31         3.0918   -3.7881   -8.8753 H         1 cry         0.0300 
     78 H32         1.9843   -2.5174   -8.4832 H         1 cry         0.0300 
     79 H33        -8.4909    5.1460   -1.3042 H         1 cry         0.3000 
     80 H34        -4.3430    4.7322   -2.2701 H         1 cry         0.3000 
     81 H35        -0.3799   -3.8850   -5.8065 H         1 cry         0.2900 
@<TRIPOS>BOND
     1    1   42 1    
     2    1   47 1    
     3    1   48 1    
     4    1   49 1    
     5    2    4 ar   
     6    2   22 ar   
     7    2   50 1    
     8    3    5 ar   
     9    3   22 ar   
    10    3   51 1    
    11    4   23 ar   
    12    4   52 1    
    13    5   23 ar   
    14    5   53 1    
    15    6    7 ar   
    16    6   24 ar   
    17    6   54 1    
    18    7   25 ar   
    19    7   55 1    
    20    8    9 ar   
    21    8   26 ar   
    22    8   56 1    
    23    9   35 ar   
    24    9   57 1    
    25   10   24 ar   
    26   10   31 ar   
    27   10   58 1    
    28   11   27 ar   
    29   11   29 ar   
    30   11   59 1    
    31   12   28 ar   
    32   12   30 ar   
    33   12   60 1    
    34   13   14 1    
    35   13   34 1    
    36   13   61 1    
    37   13   62 1    
    38   14   34 1    
    39   14   63 1    
    40   14   64 1    
    41   15   17 1    
    42   15   38 1    
    43   15   65 1    
    44   15   66 1    
    45   16   18 1    
    46   16   38 1    
    47   16   67 1    
    48   16   68 1    
    49   17   41 1    
    50   17   69 1    
    51   17   70 1    
    52   18   41 1    
    53   18   71 1    
    54   18   72 1    
    55   19   20 1    
    56   19   21 1    
    57   19   73 1    
    58   19   74 1    
    59   20   38 1    
    60   20   75 1    
    61   20   76 1    
    62   21   43 1    
    63   21   77 1    
    64   21   78 1    
    65   22   36 1    
    66   23   45 1    
    67   24   37 1    
    68   25   31 ar   
    69   25   44 1    
    70   26   27 ar   
    71   26   44 1    
    72   27   28 ar   
    73   28   35 ar   
    74   29   30 ar   
    75   29   42 1    
    76   30   43 1    
    77   31   46 1    
    78   32   34 1    
    79   32   36 am   BACKBONE|DICT|INTERRES
    80   32   39 2    
    81   33   34 1    
    82   33   37 am   BACKBONE|DICT|INTERRES
    83   33   40 2    
    84   36   79 1    
    85   37   80 1    
    86   38   81 1    
@<TRIPOS>SUBSTRUCTURE
     1 cry         1 GROUP             0 A     ****    0 ROOT    
@<TRIPOS>MOLECULE
met-ligand
81   86    1
SMALL
USER_CHARGES


@<TRIPOS>ATOM
      1 C1          1.1239    0.5355   -9.0860 C.3       1 cry         0.1100 
      2 C2        -10.2594    2.0550    0.6252 C.ar      1 cry        -0.1150 
      3 C3         -9.4787    4.0349    1.8154 C.ar      1 cry        -0.1150 
      4 C4        -11.2037    1.8228    1.6464 C.ar      1 cry        -0.1150 
      5 C5        -10.4193    3.8004    2.8363 C.ar      1 cry        -0.1150 
      6 C6         -3.0304    3.4636   -2.9705 C.ar      1 cry        -0.1150 
      7 C7         -1.6615    3.2212   -3.1940 C.ar      1 cry        -0.1150 
      8 C8          0.8413    0.9442   -2.6116 C.ar      1 cry        -0.4849 
      9 C9          1.5831   -0.1518   -2.1403 C.ar      1 cry         0.4305 
     10 C10        -3.5951    2.0872   -4.8983 C.ar      1 cry        -0.1150 
     11 C11         1.3453    0.3848   -6.2579 C.ar      1 cry        -0.1673 
     12 C12         2.7760   -1.7552   -5.1495 C.ar      1 cry        -0.4407 
     13 C13        -7.2533    5.4222   -2.2624 C.3       1 cry        -0.1200 
     14 C14        -7.7842    4.8090   -3.5365 C.3       1 cry        -0.1200 
     15 C15        -1.3385   -5.1032   -7.8703 C.3       1 cry        -0.0744 
     16 C16        -0.5505   -2.9955   -6.9479 C.3       1 cry        -0.0744 
     17 C17        -2.7208   -4.8006   -7.2654 C.3       1 cry         0.3644 
     18 C18        -1.9526   -2.7582   -6.3674 C.3       1 cry         0.3644 
     19 C19         2.1957   -4.6428   -6.5461 C.3       1 cry        -0.1200 
     20 C20         1.0898   -4.7267   -7.6192 C.3       1 cry         0.1500 
     21 C21         3.4658   -3.8942   -7.0006 C.3       1 cry         0.1400 
     22 C22        -9.3970    3.1761    0.6972 C.ar      1 cry         0.0850 
     23 C23       -11.2898    2.6997    2.7458 C.ar      1 cry         0.2200 
     24 C24        -4.0079    2.8871   -3.8107 C.ar      1 cry         0.0850 
     25 C25        -1.2506    2.3988   -4.2624 C.ar      1 cry         0.0850 
     26 C26         0.7423    1.1421   -4.0034 C.ar      1 cry         0.2811 
     27 C27         1.4028    0.2292   -4.8582 C.ar      1 cry        -0.1736 
     28 C28         2.1316   -0.8471   -4.2867 C.ar      1 cry         0.7341 
     29 C29         1.9790   -0.5461   -7.1154 C.ar      1 cry         0.0494 
     30 C30         2.6796   -1.6369   -6.5561 C.ar      1 cry         0.1955 
     31 C31        -2.2233    1.8321   -5.1149 C.ar      1 cry         0.2200 
     32 C32        -8.4002    3.1892   -1.6032 C.2       1 cry         0.5000 
     33 C33        -6.0446    3.1336   -2.4411 C.2       1 cry         0.5000 
     34 C34        -7.3406    3.9110   -2.3908 C.3       1 cry         0.0000 
     35 N1          2.2441   -1.0050   -2.9484 N.ar      1 cry        -0.7311 
     36 N2         -8.4228    3.4929   -0.2875 N.am      1 cry        -0.3850 
     37 N3         -5.3878    3.1695   -3.6179 N.am      1 cry        -0.3850 
     38 N4         -0.2694   -4.4467   -7.0816 N.4       1 cry        -0.1000 
     39 O1         -9.1831    2.4131   -2.1509 O.2       1 cry        -0.5000 
     40 O2         -5.6233    2.4870   -1.4815 O.2       1 cry        -0.5000 
     41 O3         -2.9185   -3.3917   -7.1975 O.3       1 cry        -0.4000 
     42 O4          1.9182   -0.4796   -8.4912 O.3       1 cry        -0.3000 
     43 O5          3.2009   -2.5619   -7.4384 O.3       1 cry        -0.3000 
     44 O6          0.0884    2.2356   -4.5198 O.3       1 cry        -0.1850 
     45 F1        -12.2084    2.4872    3.7176 F         1 cry        -0.2200 
     46 F2         -1.8413    1.0570   -6.1589 F         1 cry        -0.2200 
     47 H1          1.1579    0.4301  -10.1696 H         1 cry         0.0300 
     48 H2          0.0799    0.4557   -8.7791 H         1 cry         0.0300 
     49 H3          1.4974    1.5294   -8.8408 H         1 cry         0.0300 
     50 H4        -10.2113    1.3619   -0.2010 H         1 cry         0.1150 
     51 H5         -8.8223    4.8899    1.8906 H         1 cry         0.1150 
     52 H6        -11.8665    0.9729    1.5852 H         1 cry         0.1150 
     53 H7        -10.4784    4.4683    3.6831 H         1 cry         0.1150 
     54 H8         -3.3219    4.1090   -2.1542 H         1 cry         0.1150 
     55 H9         -0.9237    3.6830   -2.5541 H         1 cry         0.1150 
     56 H10         0.3569    1.6124   -1.9146 H         1 cry         0.1970 
     57 H11         1.6763   -0.3301   -1.0816 H         1 cry         0.0550 
     58 H12        -4.3269    1.6563   -5.5647 H         1 cry         0.1150 
     59 H13         0.7872    1.2146   -6.6618 H         1 cry         0.1528 
     60 H14         3.2911   -2.5878   -4.7025 H         1 cry         0.2022 
     61 H15        -7.9633    5.9272   -1.6099 H         1 cry         0.0600 
     62 H16        -6.2613    5.8712   -2.2850 H         1 cry         0.0600 
     63 H17        -7.1651    4.8956   -4.4260 H         1 cry         0.0600 
     64 H18        -8.8541    4.8844   -3.7254 H         1 cry         0.0600 
     65 H19        -1.1787   -6.1813   -7.8784 H         1 cry         0.0600 
     66 H20        -1.2989   -4.7591   -8.9049 H         1 cry         0.0600 
     67 H21        -0.4555   -2.5029   -7.9184 H         1 cry         0.0600 
     68 H22         0.1793   -2.5452   -6.2813 H         1 cry         0.0600 
     69 H23        -3.5050   -5.2338   -7.8866 H         1 cry         0.0300 
     70 H24        -2.8236   -5.2475   -6.2764 H         1 cry         0.0300 
     71 H25        -2.1638   -1.6872   -6.3400 H         1 cry         0.0300 
     72 H26        -2.0244   -3.1132   -5.3367 H         1 cry         0.0300 
     73 H27         1.8233   -4.1832   -5.6402 H         1 cry         0.0600 
     74 H28         2.4688   -5.6536   -6.2419 H         1 cry         0.0600 
     75 H29         1.1142   -5.7330   -8.0414 H         1 cry         0.0600 
     76 H30         1.2927   -4.0545   -8.4548 H         1 cry         0.0600 
     77 H31         4.2285   -3.8997   -6.2221 H         1 cry         0.0300 
     78 H32         3.9066   -4.4270   -7.8436 H         1 cry         0.0300 
     79 H33        -7.7021    4.1330    0.0244 H         1 cry         0.3000 
     80 H34        -5.8877    3.5349   -4.4145 H         1 cry         0.3000 
     81 H35        -0.3422   -4.8325   -6.1354 H         1 cry         0.2900 
@<TRIPOS>BOND
     1    1   42 1    
     2    1   47 1    
     3    1   48 1    
     4    1   49 1    
     5    2    4 ar   
     6    2   22 ar   
     7    2   50 1    
     8    3    5 ar   
     9    3   22 ar   
    10    3   51 1    
    11    4   23 ar   
    12    4   52 1    
    13    5   23 ar   
    14    5   53 1    
    15    6    7 ar   
    16    6   24 ar   
    17    6   54 1    
    18    7   25 ar   
    19    7   55 1    
    20    8    9 ar   
    21    8   26 ar   
    22    8   56 1    
    23    9   35 ar   
    24    9   57 1    
    25   10   24 ar   
    26   10   31 ar   
    27   10   58 1    
    28   11   27 ar   
    29   11   29 ar   
    30   11   59 1    
    31   12   28 ar   
    32   12   30 ar   
    33   12   60 1    
    34   13   14 1    
    35   13   34 1    
    36   13   61 1    
    37   13   62 1    
    38   14   34 1    
    39   14   63 1    
    40   14   64 1    
    41   15   17 1    
    42   15   38 1    
    43   15   65 1    
    44   15   66 1    
    45   16   18 1    
    46   16   38 1    
    47   16   67 1    
    48   16   68 1    
    49   17   41 1    
    50   17   69 1    
    51   17   70 1    
    52   18   41 1    
    53   18   71 1    
    54   18   72 1    
    55   19   20 1    
    56   19   21 1    
    57   19   73 1    
    58   19   74 1    
    59   20   38 1    
    60   20   75 1    
    61   20   76 1    
    62   21   43 1    
    63   21   77 1    
    64   21   78 1    
    65   22   36 1    
    66   23   45 1    
    67   24   37 1    
    68   25   31 ar   
    69   25   44 1    
    70   26   27 ar   
    71   26   44 1    
    72   27   28 ar   
    73   28   35 ar   
    74   29   30 ar   
    75   29   42 1    
    76   30   43 1    
    77   31   46 1    
    78   32   34 1    
    79   32   36 am   BACKBONE|DICT|INTERRES
    80   32   39 2    
    81   33   34 1    
    82   33   37 am   BACKBONE|DICT|INTERRES
    83   33   40 2    
    84   36   79 1    
    85   37   80 1    
    86   38   81 1    
@<TRIPOS>SUBSTRUCTURE
     1 cry         1 GROUP             0 A     ****    0 ROOT    
@<TRIPOS>MOLECULE
met-ligand
81   86    1
SMALL
USER_CHARGES


@<TRIPOS>ATOM
      1 C1          1.4678   -1.1516   -9.1766 C.3       1 cry         0.1100 
      2 C2         -7.4213    0.4620   -0.1671 C.ar      1 cry        -0.1150 
      3 C3         -8.3996    2.2720    1.1449 C.ar      1 cry        -0.1150 
      4 C4         -7.9299   -0.4778    0.7530 C.ar      1 cry        -0.1150 
      5 C5         -8.9200    1.3301    2.0541 C.ar      1 cry        -0.1150 
      6 C6         -2.7251    2.2935   -4.3841 C.ar      1 cry        -0.1150 
      7 C7         -1.4207    1.8737   -4.7073 C.ar      1 cry        -0.1150 
      8 C8          1.3410    0.6461   -2.5831 C.ar      1 cry        -0.4849 
      9 C9          1.8376   -0.5862   -2.1301 C.ar      1 cry         0.4305 
     10 C10        -1.8115    4.0509   -2.9620 C.ar      1 cry        -0.1150 
     11 C11         1.9848    0.1490   -6.2219 C.ar      1 cry        -0.1673 
     12 C12         2.8536   -2.2872   -5.1454 C.ar      1 cry        -0.4407 
     13 C13        -6.8039    5.3989   -2.3476 C.3       1 cry        -0.1200 
     14 C14        -7.6232    4.9203   -3.5231 C.3       1 cry        -0.1200 
     15 C15        -1.5002   -5.3785   -7.7960 C.3       1 cry        -0.0744 
     16 C16        -0.5687   -3.2617   -7.0482 C.3       1 cry        -0.0744 
     17 C17        -2.8395   -4.9588   -7.1646 C.3       1 cry         0.3644 
     18 C18        -1.9348   -2.9049   -6.4388 C.3       1 cry         0.3644 
     19 C19         2.0515   -5.0928   -6.5440 C.3       1 cry        -0.1200 
     20 C20         0.9539   -5.1266   -7.6227 C.3       1 cry         0.1500 
     21 C21         3.3794   -4.4498   -7.0036 C.3       1 cry         0.1400 
     22 C22        -7.6624    1.8436    0.0213 C.ar      1 cry         0.0850 
     23 C23        -8.6848   -0.0441    1.8594 C.ar      1 cry         0.2200 
     24 C24        -2.9301    3.3850   -3.5048 C.ar      1 cry         0.0850 
     25 C25        -0.3080    2.5353   -4.1499 C.ar      1 cry         0.0850 
     26 C26         1.3778    0.9144   -3.9657 C.ar      1 cry         0.2811 
     27 C27         1.9055   -0.0703   -4.8317 C.ar      1 cry        -0.1736 
     28 C28         2.3679   -1.2916   -4.2757 C.ar      1 cry         0.7341 
     29 C29         2.4565   -0.8633   -7.0781 C.ar      1 cry         0.0494 
     30 C30         2.8594   -2.1133   -6.5512 C.ar      1 cry         0.1955 
     31 C31        -0.5060    3.6258   -3.2795 C.ar      1 cry         0.2200 
     32 C32        -7.1301    2.7694   -2.2047 C.2       1 cry         0.5000 
     33 C33        -5.3955    3.6414   -3.7133 C.2       1 cry         0.5000 
     34 C34        -6.5990    3.9971   -2.8932 C.3       1 cry         0.0000 
     35 N1          2.3773   -1.5132   -2.9434 N.ar      1 cry        -0.7311 
     36 N2         -7.1469    2.8299   -0.8599 N.am      1 cry        -0.3850 
     37 N3         -4.2194    3.8032   -3.0803 N.am      1 cry        -0.3850 
     38 N4         -0.3736   -4.7318   -7.0878 N.4       1 cry        -0.1000 
     39 O1         -7.5204    1.7878   -2.8392 O.2       1 cry        -0.5000 
     40 O2         -5.4979    3.2639   -4.8798 O.2       1 cry        -0.5000 
     41 O3         -2.9611   -3.5410   -7.1881 O.3       1 cry        -0.4000 
     42 O4          2.5342   -0.6066   -8.4210 O.3       1 cry        -0.3000 
     43 O5          3.2352   -3.0970   -7.4447 O.3       1 cry        -0.3000 
     44 O6          0.9626    2.1267   -4.4583 O.3       1 cry        -0.1850 
     45 F1         -9.1716   -0.9471    2.7420 F         1 cry        -0.2200 
     46 F2          0.5602    4.2560   -2.7281 F         1 cry        -0.2200 
     47 H1          1.5819   -0.8690  -10.2244 H         1 cry         0.0300 
     48 H2          1.4545   -2.2403   -9.1208 H         1 cry         0.0300 
     49 H3          0.5077   -0.7712   -8.8281 H         1 cry         0.0300 
     50 H4         -6.8421    0.1017   -1.0064 H         1 cry         0.1150 
     51 H5         -8.5732    3.3247    1.3113 H         1 cry         0.1150 
     52 H6         -7.7469   -1.5318    0.6109 H         1 cry         0.1150 
     53 H7         -9.4901    1.6612    2.9117 H         1 cry         0.1150 
     54 H8         -3.5569    1.7431   -4.8003 H         1 cry         0.1150 
     55 H9         -1.2768    1.0361   -5.3720 H         1 cry         0.1150 
     56 H10         0.9378    1.3644   -1.8843 H         1 cry         0.1970 
     57 H11         1.8227   -0.8330   -1.0816 H         1 cry         0.0550 
     58 H12        -1.9508    4.8803   -2.2840 H         1 cry         0.1150 
     59 H13         1.6633    1.0868   -6.6527 H         1 cry         0.1528 
     60 H14         3.1625   -3.2195   -4.7022 H         1 cry         0.2022 
     61 H15        -7.3119    5.5180   -1.3909 H         1 cry         0.0600 
     62 H16        -6.0246    6.1328   -2.5451 H         1 cry         0.0600 
     63 H17        -7.3983    5.3405   -4.5014 H         1 cry         0.0600 
     64 H18        -8.6757    4.6982   -3.3554 H         1 cry         0.0600 
     65 H19        -1.3985   -6.4623   -7.7457 H         1 cry         0.0600 
     66 H20        -1.4782   -5.1035   -8.8541 H         1 cry         0.0600 
     67 H21        -0.5126   -2.8578   -8.0599 H         1 cry         0.0600 
     68 H22         0.2201   -2.7900   -6.4632 H         1 cry         0.0600 
     69 H23        -3.6684   -5.3938   -7.7244 H         1 cry         0.0300 
     70 H24        -2.9269   -5.3309   -6.1434 H         1 cry         0.0300 
     71 H25        -2.0866   -1.8257   -6.4816 H         1 cry         0.0300 
     72 H26        -2.0035   -3.1784   -5.3842 H         1 cry         0.0300 
     73 H27         1.6844   -4.5924   -5.6548 H         1 cry         0.0600 
     74 H28         2.2477   -6.1151   -6.2149 H         1 cry         0.0600 
     75 H29         0.9072   -6.1433   -8.0192 H         1 cry         0.0600 
     76 H30         1.2048   -4.4913   -8.4747 H         1 cry         0.0600 
     77 H31         4.1381   -4.5189   -6.2240 H         1 cry         0.0300 
     78 H32         3.7701   -5.0208   -7.8474 H         1 cry         0.0300 
     79 H33        -6.9169    3.7180   -0.4351 H         1 cry         0.3000 
     80 H34        -4.2552    4.3005   -2.2037 H         1 cry         0.3000 
     81 H35        -0.4410   -5.0612   -6.1153 H         1 cry         0.2900 
@<TRIPOS>BOND
     1    1   42 1    
     2    1   47 1    
     3    1   48 1    
     4    1   49 1    
     5    2    4 ar   
     6    2   22 ar   
     7    2   50 1    
     8    3    5 ar   
     9    3   22 ar   
    10    3   51 1    
    11    4   23 ar   
    12    4   52 1    
    13    5   23 ar   
    14    5   53 1    
    15    6    7 ar   
    16    6   24 ar   
    17    6   54 1    
    18    7   25 ar   
    19    7   55 1    
    20    8    9 ar   
    21    8   26 ar   
    22    8   56 1    
    23    9   35 ar   
    24    9   57 1    
    25   10   24 ar   
    26   10   31 ar   
    27   10   58 1    
    28   11   27 ar   
    29   11   29 ar   
    30   11   59 1    
    31   12   28 ar   
    32   12   30 ar   
    33   12   60 1    
    34   13   14 1    
    35   13   34 1    
    36   13   61 1    
    37   13   62 1    
    38   14   34 1    
    39   14   63 1    
    40   14   64 1    
    41   15   17 1    
    42   15   38 1    
    43   15   65 1    
    44   15   66 1    
    45   16   18 1    
    46   16   38 1    
    47   16   67 1    
    48   16   68 1    
    49   17   41 1    
    50   17   69 1    
    51   17   70 1    
    52   18   41 1    
    53   18   71 1    
    54   18   72 1    
    55   19   20 1    
    56   19   21 1    
    57   19   73 1    
    58   19   74 1    
    59   20   38 1    
    60   20   75 1    
    61   20   76 1    
    62   21   43 1    
    63   21   77 1    
    64   21   78 1    
    65   22   36 1    
    66   23   45 1    
    67   24   37 1    
    68   25   31 ar   
    69   25   44 1    
    70   26   27 ar   
    71   26   44 1    
    72   27   28 ar   
    73   28   35 ar   
    74   29   30 ar   
    75   29   42 1    
    76   30   43 1    
    77   31   46 1    
    78   32   34 1    
    79   32   36 am   BACKBONE|DICT|INTERRES
    80   32   39 2    
    81   33   34 1    
    82   33   37 am   BACKBONE|DICT|INTERRES
    83   33   40 2    
    84   36   79 1    
    85   37   80 1    
    86   38   81 1    
@<TRIPOS>SUBSTRUCTURE
     1 cry         1 GROUP             0 A     ****    0 ROOT    
@<TRIPOS>MOLECULE
met-ligand
81   86    1
SMALL
USER_CHARGES


@<TRIPOS>ATOM
      1 C1          2.1696    0.9718   -8.9176 C.3       1 cry         0.1100 
      2 C2         -8.3130    2.2710    0.9887 C.ar      1 cry        -0.1150 
      3 C3         -7.4914    0.5041   -0.4790 C.ar      1 cry        -0.1150 
      4 C4         -8.8221    1.2987    1.8712 C.ar      1 cry        -0.1150 
      5 C5         -7.9873   -0.4669    0.4131 C.ar      1 cry        -0.1150 
      6 C6         -2.7664    2.3226   -4.3474 C.ar      1 cry        -0.1150 
      7 C7         -1.4601    1.8710   -4.6136 C.ar      1 cry        -0.1150 
      8 C8          1.2227    0.3912   -2.5117 C.ar      1 cry        -0.4849 
      9 C9          1.7542   -0.8634   -2.1675 C.ar      1 cry         0.4305 
     10 C10        -1.8771    3.9887   -2.8066 C.ar      1 cry        -0.1150 
     11 C11         1.9941    0.3160   -6.1560 C.ar      1 cry        -0.1673 
     12 C12         3.0504   -2.1384   -5.3017 C.ar      1 cry        -0.4407 
     13 C13        -6.8408    5.5373   -2.4854 C.3       1 cry        -0.1200 
     14 C14        -7.6155    5.0977   -3.7070 C.3       1 cry        -0.1200 
     15 C15        -0.8527   -5.1456   -8.1579 C.3       1 cry        -0.0744 
     16 C16        -0.5033   -2.9497   -7.1255 C.3       1 cry        -0.0744 
     17 C17        -2.3684   -4.8990   -8.0642 C.3       1 cry         0.3644 
     18 C18        -2.0273   -2.7768   -7.0586 C.3       1 cry         0.3644 
     19 C19         2.1784   -4.3214   -8.0536 C.3       1 cry        -0.1200 
     20 C20         1.2604   -4.7023   -6.8769 C.3       1 cry         0.1500 
     21 C21         3.6054   -3.9512   -7.6029 C.3       1 cry         0.1400 
     22 C22        -7.6580    1.8797   -0.1975 C.ar      1 cry         0.0850 
     23 C23        -8.6532   -0.0693    1.5881 C.ar      1 cry         0.2200 
     24 C24        -2.9832    3.3902   -3.4428 C.ar      1 cry         0.0850 
     25 C25        -0.3622    2.4703   -3.9668 C.ar      1 cry         0.0850 
     26 C26         1.2993    0.8050   -3.8566 C.ar      1 cry         0.2811 
     27 C27         1.8929   -0.0617   -4.8006 C.ar      1 cry        -0.1736 
     28 C28         2.4136   -1.3045   -4.3571 C.ar      1 cry         0.7341 
     29 C29         2.6268   -0.5318   -7.0953 C.ar      1 cry         0.0494 
     30 C30         3.1528   -1.7680   -6.6636 C.ar      1 cry         0.1955 
     31 C31        -0.5720    3.5268   -3.0611 C.ar      1 cry         0.2200 
     32 C32        -7.2349    2.9207   -2.3914 C.2       1 cry         0.5000 
     33 C33        -5.4153    3.7609   -3.7967 C.2       1 cry         0.5000 
     34 C34        -6.6497    4.1391   -3.0409 C.3       1 cry         0.0000 
     35 N1          2.3772   -1.6655   -3.0544 N.ar      1 cry        -0.7311 
     36 N2         -7.1456    2.8914   -1.0488 N.am      1 cry        -0.3850 
     37 N3         -4.2789    3.8445   -3.0814 N.am      1 cry        -0.3850 
     38 N4         -0.1748   -4.3938   -7.0815 N.4       1 cry        -0.1000 
     39 O1         -7.7575    2.0220   -3.0526 O.2       1 cry        -0.5000 
     40 O2         -5.4573    3.4307   -4.9820 O.2       1 cry        -0.5000 
     41 O3         -2.6321   -3.4994   -8.1273 O.3       1 cry        -0.4000 
     42 O4          2.7597   -0.2266   -8.4337 O.3       1 cry        -0.3000 
     43 O5          3.7959   -2.5386   -7.6066 O.3       1 cry        -0.3000 
     44 O6          0.9159    2.0656   -4.2359 O.3       1 cry        -0.1850 
     45 F1         -9.1257   -1.0010    2.4489 F         1 cry        -0.2200 
     46 F2          0.4833    4.0884   -2.4242 F         1 cry        -0.2200 
     47 H1          2.3331    1.0418   -9.9926 H         1 cry         0.0300 
     48 H2          1.0916    0.9820   -8.7479 H         1 cry         0.0300 
     49 H3          2.6189    1.8528   -8.4572 H         1 cry         0.0300 
     50 H4         -8.4302    3.3191    1.2247 H         1 cry         0.1150 
     51 H5         -6.9789    0.1865   -1.3748 H         1 cry         0.1150 
     52 H6         -9.3298    1.6016    2.7753 H         1 cry         0.1150 
     53 H7         -7.8570   -1.5174    0.1975 H         1 cry         0.1150 
     54 H8         -3.5919    1.8238   -4.8324 H         1 cry         0.1150 
     55 H9         -1.3022    1.0599   -5.3092 H         1 cry         0.1150 
     56 H10         0.7753    1.0206   -1.7567 H         1 cry         0.1970 
     57 H11         1.7183   -1.2148   -1.1446 H         1 cry         0.0550 
     58 H12        -2.0252    4.7958   -2.1045 H         1 cry         0.1150 
     59 H13         1.5832    1.2652   -6.4622 H         1 cry         0.1528 
     60 H14         3.4509   -3.0800   -4.9612 H         1 cry         0.2022 
     61 H15        -7.3863    5.6499   -1.5503 H         1 cry         0.0600 
     62 H16        -6.0367    6.2560   -2.6357 H         1 cry         0.0600 
     63 H17        -7.3303    5.5194   -4.6694 H         1 cry         0.0600 
     64 H18        -8.6801    4.9002   -3.5933 H         1 cry         0.0600 
     65 H19        -0.6424   -6.2110   -8.0557 H         1 cry         0.0600 
     66 H20        -0.4743   -4.8300   -9.1315 H         1 cry         0.0600 
     67 H21        -0.1188   -2.4927   -8.0368 H         1 cry         0.0600 
     68 H22        -0.0369   -2.4362   -6.2835 H         1 cry         0.0600 
     69 H23        -2.8838   -5.3942   -8.8869 H         1 cry         0.0300 
     70 H24        -2.7737   -5.3146   -7.1403 H         1 cry         0.0300 
     71 H25        -2.2918   -1.7234   -7.1531 H         1 cry         0.0300 
     72 H26        -2.4159   -3.1149   -6.0968 H         1 cry         0.0300 
     73 H27         2.2223   -5.1710   -8.7359 H         1 cry         0.0600 
     74 H28         1.7728   -3.5015   -8.6444 H         1 cry         0.0600 
     75 H29         1.5783   -4.2018   -5.9655 H         1 cry         0.0600 
     76 H30         1.3686   -5.7647   -6.6572 H         1 cry         0.0600 
     77 H31         3.8822   -4.4160   -6.6579 H         1 cry         0.0300 
     78 H32         4.3072   -4.3477   -8.3365 H         1 cry         0.0300 
     79 H33        -6.8283    3.7348   -0.5882 H         1 cry         0.3000 
     80 H34        -4.3523    4.3059   -2.1874 H         1 cry         0.3000 
     81 H35        -0.5935   -4.7154   -6.2020 H         1 cry         0.2900 
@<TRIPOS>BOND
     1    1   42 1    
     2    1   47 1    
     3    1   48 1    
     4    1   49 1    
     5    2    4 ar   
     6    2   22 ar   
     7    2   50 1    
     8    3    5 ar   
     9    3   22 ar   
    10    3   51 1    
    11    4   23 ar   
    12    4   52 1    
    13    5   23 ar   
    14    5   53 1    
    15    6    7 ar   
    16    6   24 ar   
    17    6   54 1    
    18    7   25 ar   
    19    7   55 1    
    20    8    9 ar   
    21    8   26 ar   
    22    8   56 1    
    23    9   35 ar   
    24    9   57 1    
    25   10   24 ar   
    26   10   31 ar   
    27   10   58 1    
    28   11   27 ar   
    29   11   29 ar   
    30   11   59 1    
    31   12   28 ar   
    32   12   30 ar   
    33   12   60 1    
    34   13   14 1    
    35   13   34 1    
    36   13   61 1    
    37   13   62 1    
    38   14   34 1    
    39   14   63 1    
    40   14   64 1    
    41   15   17 1    
    42   15   38 1    
    43   15   65 1    
    44   15   66 1    
    45   16   18 1    
    46   16   38 1    
    47   16   67 1    
    48   16   68 1    
    49   17   41 1    
    50   17   69 1    
    51   17   70 1    
    52   18   41 1    
    53   18   71 1    
    54   18   72 1    
    55   19   20 1    
    56   19   21 1    
    57   19   73 1    
    58   19   74 1    
    59   20   38 1    
    60   20   75 1    
    61   20   76 1    
    62   21   43 1    
    63   21   77 1    
    64   21   78 1    
    65   22   36 1    
    66   23   45 1    
    67   24   37 1    
    68   25   31 ar   
    69   25   44 1    
    70   26   27 ar   
    71   26   44 1    
    72   27   28 ar   
    73   28   35 ar   
    74   29   30 ar   
    75   29   42 1    
    76   30   43 1    
    77   31   46 1    
    78   32   34 1    
    79   32   36 am   BACKBONE|DICT|INTERRES
    80   32   39 2    
    81   33   34 1    
    82   33   37 am   BACKBONE|DICT|INTERRES
    83   33   40 2    
    84   36   79 1    
    85   37   80 1    
    86   38   81 1    
@<TRIPOS>SUBSTRUCTURE
     1 cry         1 GROUP             0 A     ****    0 ROOT    
@<TRIPOS>MOLECULE
met-ligand
81   86    1
SMALL
USER_CHARGES


@<TRIPOS>ATOM
      1 C1          1.5520    0.6949   -8.9968 C.3       1 cry         0.1100 
      2 C2         -7.3931    0.7686   -0.4838 C.ar      1 cry        -0.1150 
      3 C3         -8.4057    2.4810    0.9290 C.ar      1 cry        -0.1150 
      4 C4         -7.8244   -0.2266    0.4155 C.ar      1 cry        -0.1150 
      5 C5         -8.8444    1.4833    1.8212 C.ar      1 cry        -0.1150 
      6 C6         -2.8020    2.4701   -4.3690 C.ar      1 cry        -0.1150 
      7 C7         -1.5026    2.0061   -4.6490 C.ar      1 cry        -0.1150 
      8 C8          1.3306    0.6101   -2.4996 C.ar      1 cry        -0.4849 
      9 C9          1.8661   -0.6351   -2.1260 C.ar      1 cry         0.4305 
     10 C10        -1.8857    4.0870   -2.7911 C.ar      1 cry        -0.1150 
     11 C11         1.7123    0.2612   -6.1914 C.ar      1 cry        -0.1673 
     12 C12         2.7768   -2.1667   -5.2779 C.ar      1 cry        -0.4407 
     13 C13        -6.8385    5.7766   -2.5332 C.3       1 cry        -0.1200 
     14 C14        -7.6090    5.3324   -3.7573 C.3       1 cry        -0.1200 
     15 C15        -1.9140   -4.8306   -7.7500 C.3       1 cry        -0.0744 
     16 C16        -0.8573   -2.8668   -6.7852 C.3       1 cry        -0.0744 
     17 C17        -3.1562   -4.5339   -6.8871 C.3       1 cry         0.3644 
     18 C18        -2.1175   -2.6360   -5.9384 C.3       1 cry         0.3644 
     19 C19         1.7433   -4.8152   -6.8367 C.3       1 cry        -0.1200 
     20 C20         0.5634   -4.6143   -7.8073 C.3       1 cry         0.1500 
     21 C21         3.0908   -4.2397   -7.3163 C.3       1 cry         0.1400 
     22 C22        -7.6863    2.1290   -0.2317 C.ar      1 cry         0.0850 
     23 C23        -8.5494    0.1316    1.5678 C.ar      1 cry         0.2200 
     24 C24        -3.0008    3.5224   -3.4421 C.ar      1 cry         0.0850 
     25 C25        -0.3945    2.5787   -3.9941 C.ar      1 cry         0.0850 
     26 C26         1.2817    0.9321   -3.8712 C.ar      1 cry         0.2811 
     27 C27         1.7591   -0.0120   -4.8079 C.ar      1 cry        -0.1736 
     28 C28         2.2970   -1.2359   -4.3329 C.ar      1 cry         0.7341 
     29 C29         2.1584   -0.6984   -7.1311 C.ar      1 cry         0.0494 
     30 C30         2.6719   -1.9302   -6.6712 C.ar      1 cry         0.1955 
     31 C31        -0.5875    3.6155   -3.0631 C.ar      1 cry         0.2200 
     32 C32        -7.2399    3.1590   -2.4274 C.2       1 cry         0.5000 
     33 C33        -5.4100    3.9871   -3.8245 C.2       1 cry         0.5000 
     34 C34        -6.6504    4.3736   -3.0798 C.3       1 cry         0.0000 
     35 N1          2.3771   -1.5130   -3.0120 N.ar      1 cry        -0.7311 
     36 N2         -7.2243    3.1658   -1.0817 N.am      1 cry        -0.3850 
     37 N3         -4.2889    3.9962   -3.0817 N.am      1 cry        -0.3850 
     38 N4         -0.6985   -4.3113   -7.0816 N.4       1 cry        -0.1000 
     39 O1         -7.7024    2.2289   -3.0906 O.2       1 cry        -0.5000 
     40 O2         -5.4324    3.7122   -5.0232 O.2       1 cry        -0.5000 
     41 O3         -3.2494   -3.1352   -6.6408 O.3       1 cry        -0.4000 
     42 O4          2.0951   -0.5185   -8.4973 O.3       1 cry        -0.3000 
     43 O5          3.0177   -2.8522   -7.6397 O.3       1 cry        -0.3000 
     44 O6          0.8779    2.1730   -4.2905 O.3       1 cry        -0.1850 
     45 F1         -8.9577   -0.8244    2.4389 F         1 cry        -0.2200 
     46 F2          0.4792    4.1519   -2.4222 F         1 cry        -0.2200 
     47 H1          1.5715    0.6720  -10.0865 H         1 cry         0.0300 
     48 H2          0.5138    0.8255   -8.6888 H         1 cry         0.0300 
     49 H3          2.1386    1.5564   -8.6753 H         1 cry         0.0300 
     50 H4         -6.8265    0.4836   -1.3585 H         1 cry         0.1150 
     51 H5         -8.6209    3.5182    1.1441 H         1 cry         0.1150 
     52 H6         -7.5961   -1.2657    0.2239 H         1 cry         0.1150 
     53 H7         -9.3960    1.7551    2.7080 H         1 cry         0.1150 
     54 H8         -3.6356    1.9985   -4.8653 H         1 cry         0.1150 
     55 H9         -1.3572    1.2113   -5.3679 H         1 cry         0.1150 
     56 H10         0.9680    1.2986   -1.7502 H         1 cry         0.1970 
     57 H11         1.9237   -0.9187   -1.0862 H         1 cry         0.0550 
     58 H12        -2.0229    4.8868   -2.0768 H         1 cry         0.1150 
     59 H13         1.3014    1.2045   -6.5181 H         1 cry         0.1528 
     60 H14         3.1569   -3.1054   -4.9080 H         1 cry         0.2022 
     61 H15        -7.3921    5.8990   -1.6051 H         1 cry         0.0600 
     62 H16        -6.0295    6.4892   -2.6817 H         1 cry         0.0600 
     63 H17        -7.3162    5.7479   -4.7194 H         1 cry         0.0600 
     64 H18        -8.6740    5.1402   -3.6481 H         1 cry         0.0600 
     65 H19        -1.8243   -5.9068   -7.9042 H         1 cry         0.0600 
     66 H20        -2.0200   -4.3681   -8.7321 H         1 cry         0.0600 
     67 H21        -0.9174   -2.2974   -7.7148 H         1 cry         0.0600 
     68 H22         0.0099   -2.5001   -6.2421 H         1 cry         0.0600 
     69 H23        -4.0583   -4.8579   -7.4074 H         1 cry         0.0300 
     70 H24        -3.1309   -5.0820   -5.9443 H         1 cry         0.0300 
     71 H25        -2.2562   -1.5699   -5.7586 H         1 cry         0.0300 
     72 H26        -2.0263   -3.1123   -4.9617 H         1 cry         0.0300 
     73 H27         1.5103   -4.3661   -5.8815 H         1 cry         0.0600 
     74 H28         1.8557   -5.8774   -6.6204 H         1 cry         0.0600 
     75 H29         0.4523   -5.5215   -8.4020 H         1 cry         0.0600 
     76 H30         0.7686   -3.8142   -8.5203 H         1 cry         0.0600 
     77 H31         3.8743   -4.4157   -6.5792 H         1 cry         0.0300 
     78 H32         3.4038   -4.7694   -8.2168 H         1 cry         0.0300 
     79 H33        -6.9634    4.0265   -0.6179 H         1 cry         0.3000 
     80 H34        -4.3653    4.4186   -2.1676 H         1 cry         0.3000 
     81 H35        -0.6689   -4.7762   -6.1673 H         1 cry         0.2900 
@<TRIPOS>BOND
     1    1   42 1    
     2    1   47 1    
     3    1   48 1    
     4    1   49 1    
     5    2    4 ar   
     6    2   22 ar   
     7    2   50 1    
     8    3    5 ar   
     9    3   22 ar   
    10    3   51 1    
    11    4   23 ar   
    12    4   52 1    
    13    5   23 ar   
    14    5   53 1    
    15    6    7 ar   
    16    6   24 ar   
    17    6   54 1    
    18    7   25 ar   
    19    7   55 1    
    20    8    9 ar   
    21    8   26 ar   
    22    8   56 1    
    23    9   35 ar   
    24    9   57 1    
    25   10   24 ar   
    26   10   31 ar   
    27   10   58 1    
    28   11   27 ar   
    29   11   29 ar   
    30   11   59 1    
    31   12   28 ar   
    32   12   30 ar   
    33   12   60 1    
    34   13   14 1    
    35   13   34 1    
    36   13   61 1    
    37   13   62 1    
    38   14   34 1    
    39   14   63 1    
    40   14   64 1    
    41   15   17 1    
    42   15   38 1    
    43   15   65 1    
    44   15   66 1    
    45   16   18 1    
    46   16   38 1    
    47   16   67 1    
    48   16   68 1    
    49   17   41 1    
    50   17   69 1    
    51   17   70 1    
    52   18   41 1    
    53   18   71 1    
    54   18   72 1    
    55   19   20 1    
    56   19   21 1    
    57   19   73 1    
    58   19   74 1    
    59   20   38 1    
    60   20   75 1    
    61   20   76 1    
    62   21   43 1    
    63   21   77 1    
    64   21   78 1    
    65   22   36 1    
    66   23   45 1    
    67   24   37 1    
    68   25   31 ar   
    69   25   44 1    
    70   26   27 ar   
    71   26   44 1    
    72   27   28 ar   
    73   28   35 ar   
    74   29   30 ar   
    75   29   42 1    
    76   30   43 1    
    77   31   46 1    
    78   32   34 1    
    79   32   36 am   BACKBONE|DICT|INTERRES
    80   32   39 2    
    81   33   34 1    
    82   33   37 am   BACKBONE|DICT|INTERRES
    83   33   40 2    
    84   36   79 1    
    85   37   80 1    
    86   38   81 1    
@<TRIPOS>SUBSTRUCTURE
     1 cry         1 GROUP             0 A     ****    0 ROOT    
@<TRIPOS>MOLECULE
met-ligand
81   86    1
SMALL
USER_CHARGES


@<TRIPOS>ATOM
      1 C1          1.0553   -1.2509   -9.1087 C.3       1 cry         0.1100 
      2 C2         -7.2379    0.4278    0.0856 C.ar      1 cry        -0.1150 
      3 C3         -8.5469    2.1464    1.2227 C.ar      1 cry        -0.1150 
      4 C4         -7.7078   -0.5360    0.9985 C.ar      1 cry        -0.1150 
      5 C5         -9.0347    1.1746    2.1184 C.ar      1 cry        -0.1150 
      6 C6         -2.7982    2.2966   -4.3037 C.ar      1 cry        -0.1150 
      7 C7         -1.4984    1.8813   -4.6494 C.ar      1 cry        -0.1150 
      8 C8          1.3598    0.6742   -2.5676 C.ar      1 cry        -0.4849 
      9 C9          1.8795   -0.5564   -2.1326 C.ar      1 cry         0.4305 
     10 C10        -1.8655    4.0556   -2.9001 C.ar      1 cry        -0.1150 
     11 C11         1.7607    0.1361   -6.2314 C.ar      1 cry        -0.1673 
     12 C12         2.7771   -2.2609   -5.1882 C.ar      1 cry        -0.4407 
     13 C13        -6.8822    5.3361   -2.1818 C.3       1 cry        -0.1200 
     14 C14        -7.7215    4.8276   -3.3317 C.3       1 cry        -0.1200 
     15 C15        -0.0526   -7.3549   -6.9012 C.3       1 cry        -0.0744 
     16 C16        -1.3787   -5.5710   -7.8929 C.3       1 cry        -0.0744 
     17 C17        -1.3485   -7.9322   -6.3020 C.3       1 cry         0.3644 
     18 C18        -2.6301   -6.2008   -7.2593 C.3       1 cry         0.3644 
     19 C19         2.1843   -5.1713   -6.5639 C.3       1 cry        -0.1200 
     20 C20         1.0451   -5.2277   -7.5969 C.3       1 cry         0.1500 
     21 C21         3.4100   -4.3750   -7.0594 C.3       1 cry         0.1400 
     22 C22        -7.6627    1.7738    0.1889 C.ar      1 cry         0.0850 
     23 C23        -8.6103   -0.1635    2.0121 C.ar      1 cry         0.2200 
     24 C24        -2.9897    3.3869   -3.4220 C.ar      1 cry         0.0850 
     25 C25        -0.3791    2.5412   -4.1037 C.ar      1 cry         0.0850 
     26 C26         1.3157    0.9295   -3.9528 C.ar      1 cry         0.2811 
     27 C27         1.7887   -0.0658   -4.8374 C.ar      1 cry        -0.1736 
     28 C28         2.3046   -1.2749   -4.2995 C.ar      1 cry         0.7341 
     29 C29         2.2022   -0.8749   -7.1040 C.ar      1 cry         0.0494 
     30 C30         2.6990   -2.0934   -6.5920 C.ar      1 cry         0.1955 
     31 C31        -0.5638    3.6328   -3.2331 C.ar      1 cry         0.2200 
     32 C32        -7.1079    2.6927   -2.0262 C.2       1 cry         0.5000 
     33 C33        -5.4557    3.6317   -3.5832 C.2       1 cry         0.5000 
     34 C34        -6.6489    3.9400   -2.7304 C.3       1 cry         0.0000 
     35 N1          2.3773   -1.4897   -2.9658 N.ar      1 cry        -0.7311 
     36 N2         -7.1932    2.7854   -0.6842 N.am      1 cry        -0.3850 
     37 N3         -4.2722    3.7886   -2.9666 N.am      1 cry        -0.3850 
     38 N4         -0.1802   -5.8879   -7.0816 N.4       1 cry        -0.1000 
     39 O1         -7.3856    1.6617   -2.6427 O.2       1 cry        -0.5000 
     40 O2         -5.5730    3.2928   -4.7614 O.2       1 cry        -0.5000 
     41 O3         -2.4462   -7.6062   -7.1459 O.3       1 cry        -0.4000 
     42 O4          2.1531   -0.6391   -8.4528 O.3       1 cry        -0.3000 
     43 O5          3.0840   -3.0575   -7.5017 O.3       1 cry        -0.3000 
     44 O6          0.8883    2.1411   -4.4315 O.3       1 cry        -0.1850 
     45 F1         -9.0589   -1.0882    2.8961 F         1 cry        -0.2200 
     46 F2          0.5093    4.2622   -2.6972 F         1 cry        -0.2200 
     47 H1          0.9941   -0.8859  -10.1348 H         1 cry         0.0300 
     48 H2          1.1702   -2.3344   -9.1507 H         1 cry         0.0300 
     49 H3          0.1116   -1.0153   -8.6129 H         1 cry         0.0300 
     50 H4         -6.5449    0.1238   -0.6851 H         1 cry         0.1150 
     51 H5         -8.8624    3.1726    1.3268 H         1 cry         0.1150 
     52 H6         -7.3806   -1.5622    0.9214 H         1 cry         0.1150 
     53 H7         -9.7206    1.4585    2.9002 H         1 cry         0.1150 
     54 H8         -3.6358    1.7464   -4.7044 H         1 cry         0.1150 
     55 H9         -1.3615    1.0453   -5.3210 H         1 cry         0.1150 
     56 H10         1.0017    1.4004   -1.8509 H         1 cry         0.1970 
     57 H11         1.9305   -0.7903   -1.0819 H         1 cry         0.0550 
     58 H12        -1.9975    4.8870   -2.2245 H         1 cry         0.1150 
     59 H13         1.3739    1.0560   -6.6449 H         1 cry         0.1528 
     60 H14         3.1409   -3.1740   -4.7540 H         1 cry         0.2022 
     61 H15        -7.3706    5.4498   -1.2150 H         1 cry         0.0600 
     62 H16        -6.1263    6.0882   -2.3982 H         1 cry         0.0600 
     63 H17        -7.5401    5.2452   -4.3192 H         1 cry         0.0600 
     64 H18        -8.7595    4.5686   -3.1307 H         1 cry         0.0600 
     65 H19         0.7760   -7.5873   -6.2299 H         1 cry         0.0600 
     66 H20         0.1630   -7.8316   -7.8574 H         1 cry         0.0600 
     67 H21        -1.2433   -5.9394   -8.9110 H         1 cry         0.0600 
     68 H22        -1.5087   -4.4898   -7.9555 H         1 cry         0.0600 
     69 H23        -1.2751   -9.0156   -6.2199 H         1 cry         0.0300 
     70 H24        -1.5255   -7.5498   -5.2947 H         1 cry         0.0300 
     71 H25        -3.5035   -6.0076   -7.8817 H         1 cry         0.0300 
     72 H26        -2.8324   -5.7640   -6.2815 H         1 cry         0.0300 
     73 H27         1.8083   -4.7459   -5.6363 H         1 cry         0.0600 
     74 H28         2.5180   -6.1788   -6.3130 H         1 cry         0.0600 
     75 H29         1.3758   -5.7152   -8.5137 H         1 cry         0.0600 
     76 H30         0.7849   -4.2016   -7.8607 H         1 cry         0.0600 
     77 H31         4.1976   -4.3516   -6.3039 H         1 cry         0.0300 
     78 H32         3.8415   -4.8981   -7.9136 H         1 cry         0.0300 
     79 H33        -7.0556    3.6986   -0.2676 H         1 cry         0.3000 
     80 H34        -4.2970    4.2644   -2.0764 H         1 cry         0.3000 
     81 H35        -0.3835   -5.5132   -6.1471 H         1 cry         0.2900 
@<TRIPOS>BOND
     1    1   42 1    
     2    1   47 1    
     3    1   48 1    
     4    1   49 1    
     5    2    4 ar   
     6    2   22 ar   
     7    2   50 1    
     8    3    5 ar   
     9    3   22 ar   
    10    3   51 1    
    11    4   23 ar   
    12    4   52 1    
    13    5   23 ar   
    14    5   53 1    
    15    6    7 ar   
    16    6   24 ar   
    17    6   54 1    
    18    7   25 ar   
    19    7   55 1    
    20    8    9 ar   
    21    8   26 ar   
    22    8   56 1    
    23    9   35 ar   
    24    9   57 1    
    25   10   24 ar   
    26   10   31 ar   
    27   10   58 1    
    28   11   27 ar   
    29   11   29 ar   
    30   11   59 1    
    31   12   28 ar   
    32   12   30 ar   
    33   12   60 1    
    34   13   14 1    
    35   13   34 1    
    36   13   61 1    
    37   13   62 1    
    38   14   34 1    
    39   14   63 1    
    40   14   64 1    
    41   15   17 1    
    42   15   38 1    
    43   15   65 1    
    44   15   66 1    
    45   16   18 1    
    46   16   38 1    
    47   16   67 1    
    48   16   68 1    
    49   17   41 1    
    50   17   69 1    
    51   17   70 1    
    52   18   41 1    
    53   18   71 1    
    54   18   72 1    
    55   19   20 1    
    56   19   21 1    
    57   19   73 1    
    58   19   74 1    
    59   20   38 1    
    60   20   75 1    
    61   20   76 1    
    62   21   43 1    
    63   21   77 1    
    64   21   78 1    
    65   22   36 1    
    66   23   45 1    
    67   24   37 1    
    68   25   31 ar   
    69   25   44 1    
    70   26   27 ar   
    71   26   44 1    
    72   27   28 ar   
    73   28   35 ar   
    74   29   30 ar   
    75   29   42 1    
    76   30   43 1    
    77   31   46 1    
    78   32   34 1    
    79   32   36 am   BACKBONE|DICT|INTERRES
    80   32   39 2    
    81   33   34 1    
    82   33   37 am   BACKBONE|DICT|INTERRES
    83   33   40 2    
    84   36   79 1    
    85   37   80 1    
    86   38   81 1    
@<TRIPOS>SUBSTRUCTURE
     1 cry         1 GROUP             0 A     ****    0 ROOT    
@<TRIPOS>MOLECULE
met-ligand
81   86    1
SMALL
USER_CHARGES


@<TRIPOS>ATOM
      1 C1          1.8232    0.1811   -9.1217 C.3       1 cry         0.1100 
      2 C2         -7.2231    0.8651   -0.6042 C.ar      1 cry        -0.1150 
      3 C3         -8.4276    2.6753    0.4936 C.ar      1 cry        -0.1150 
      4 C4         -7.5777   -0.0069    0.4429 C.ar      1 cry        -0.1150 
      5 C5         -8.7831    1.8013    1.5404 C.ar      1 cry        -0.1150 
      6 C6         -2.9890    2.4916   -4.5065 C.ar      1 cry        -0.1150 
      7 C7         -1.7214    1.9814   -4.8467 C.ar      1 cry        -0.1150 
      8 C8          1.1734    0.7709   -2.6792 C.ar      1 cry        -0.4849 
      9 C9          1.7707   -0.3815   -2.1456 C.ar      1 cry         0.4305 
     10 C10        -1.9398    4.0862   -2.9992 C.ar      1 cry        -0.1150 
     11 C11         1.8213    0.0683   -6.2823 C.ar      1 cry        -0.1673 
     12 C12         2.9955   -2.1493   -5.0399 C.ar      1 cry        -0.4407 
     13 C13        -6.4386    6.4007   -3.2926 C.3       1 cry        -0.1200 
     14 C14        -7.4914    5.6833   -4.1009 C.3       1 cry        -0.1200 
     15 C15        -1.0340   -5.4648   -7.9542 C.3       1 cry        -0.0744 
     16 C16        -0.2879   -3.3458   -7.0118 C.3       1 cry        -0.0744 
     17 C17        -2.4659   -5.1036   -7.5199 C.3       1 cry         0.3644 
     18 C18        -1.7426   -3.0650   -6.5968 C.3       1 cry         0.3644 
     19 C19         2.3829   -5.0357   -6.3371 C.3       1 cry        -0.1200 
     20 C20         1.3621   -5.1344   -7.4887 C.3       1 cry         0.1500 
     21 C21         3.7102   -4.3669   -6.7521 C.3       1 cry         0.1400 
     22 C22        -7.6375    2.2132   -0.5879 C.ar      1 cry         0.0850 
     23 C23        -8.3583    0.4606    1.5146 C.ar      1 cry         0.2200 
     24 C24        -3.1098    3.5677   -3.5889 C.ar      1 cry         0.0850 
     25 C25        -0.5598    2.5294   -4.2716 C.ar      1 cry         0.0850 
     26 C26         1.1770    0.9457   -4.0782 C.ar      1 cry         0.2811 
     27 C27         1.7863   -0.0492   -4.8771 C.ar      1 cry        -0.1736 
     28 C28         2.3767   -1.1709   -4.2409 C.ar      1 cry         0.7341 
     29 C29         2.4208   -0.9390   -7.0778 C.ar      1 cry         0.0494 
     30 C30         2.9981   -2.0644   -6.4510 C.ar      1 cry         0.1955 
     31 C31        -0.6722    3.5761   -3.3368 C.ar      1 cry         0.2200 
     32 C32        -7.2951    4.3509   -1.8818 C.2       1 cry         0.5000 
     33 C33        -5.5823    3.9822   -3.6977 C.2       1 cry         0.5000 
     34 C34        -6.6282    4.9002   -3.1306 C.3       1 cry         0.0000 
     35 N1          2.3933   -1.3091   -2.8969 N.ar      1 cry        -0.7311 
     36 N2         -7.2223    3.0142   -1.6872 N.am      1 cry        -0.3850 
     37 N3         -4.3391    4.1875   -3.2199 N.am      1 cry        -0.3850 
     38 N4         -0.0310   -4.8064   -7.0816 N.4       1 cry        -0.1000 
     39 O1         -7.9015    5.1098   -1.1280 O.2       1 cry        -0.5000 
     40 O2         -5.8881    3.1012   -4.4990 O.2       1 cry        -0.5000 
     41 O3         -2.6234   -3.6900   -7.5205 O.3       1 cry        -0.4000 
     42 O4          2.4547   -0.9047   -8.4559 O.3       1 cry        -0.3000 
     43 O5          3.5173   -3.0489   -7.2674 O.3       1 cry        -0.3000 
     44 O6          0.6771    2.0843   -4.6578 O.3       1 cry        -0.1850 
     45 F1         -8.7012   -0.3783    2.5189 F         1 cry        -0.2200 
     46 F2          0.4409    4.0957   -2.7642 F         1 cry        -0.2200 
     47 H1          1.9257    0.0517  -10.2003 H         1 cry         0.0300 
     48 H2          0.7550    0.2225   -8.8942 H         1 cry         0.0300 
     49 H3          2.2894    1.1325   -8.8619 H         1 cry         0.0300 
     50 H4         -6.6226    0.4903   -1.4213 H         1 cry         0.1150 
     51 H5         -8.7725    3.6951    0.5526 H         1 cry         0.1150 
     52 H6         -7.2523   -1.0366    0.4246 H         1 cry         0.1150 
     53 H7         -9.3813    2.1591    2.3642 H         1 cry         0.1150 
     54 H8         -3.8444    2.0444   -4.9852 H         1 cry         0.1150 
     55 H9         -1.6399    1.1788   -5.5660 H         1 cry         0.1150 
     56 H10         0.7210    1.4965   -2.0177 H         1 cry         0.1970 
     57 H11         1.7801   -0.5487   -1.0822 H         1 cry         0.0550 
     58 H12        -2.0086    4.8870   -2.2809 H         1 cry         0.1150 
     59 H13         1.3634    0.9315   -6.7395 H         1 cry         0.1528 
     60 H14         3.4115   -3.0056   -4.5376 H         1 cry         0.2022 
     61 H15        -6.7694    7.0472   -2.4825 H         1 cry         0.0600 
     62 H16        -5.5497    6.7482   -3.8148 H         1 cry         0.0600 
     63 H17        -7.3094    5.5426   -5.1650 H         1 cry         0.0600 
     64 H18        -8.5338    5.8423   -3.8339 H         1 cry         0.0600 
     65 H19        -0.9077   -6.5476   -7.9148 H         1 cry         0.0600 
     66 H20        -0.8762   -5.1595   -8.9901 H         1 cry         0.0600 
     67 H21        -0.0742   -2.8814   -7.9761 H         1 cry         0.0600 
     68 H22         0.3770   -2.8898   -6.2817 H         1 cry         0.0600 
     69 H23        -3.1867   -5.5329   -8.2174 H         1 cry         0.0300 
     70 H24        -2.6993   -5.5166   -6.5399 H         1 cry         0.0300 
     71 H25        -1.9291   -1.9912   -6.6032 H         1 cry         0.0300 
     72 H26        -1.9558   -3.4150   -5.5849 H         1 cry         0.0300 
     73 H27         1.9724   -4.5115   -5.4817 H         1 cry         0.0600 
     74 H28         2.5886   -6.0389   -5.9615 H         1 cry         0.0600 
     75 H29         1.4024   -6.1542   -7.8768 H         1 cry         0.0600 
     76 H30         1.6482   -4.4947   -8.3250 H         1 cry         0.0600 
     77 H31         4.4270   -4.3614   -5.9309 H         1 cry         0.0300 
     78 H32         4.1743   -4.9591   -7.5408 H         1 cry         0.0300 
     79 H33        -6.7451    2.5075   -2.4200 H         1 cry         0.3000 
     80 H34        -4.2588    4.9527   -2.5632 H         1 cry         0.3000 
     81 H35        -0.2066   -5.1511   -6.1345 H         1 cry         0.2900 
@<TRIPOS>BOND
     1    1   42 1    
     2    1   47 1    
     3    1   48 1    
     4    1   49 1    
     5    2    4 ar   
     6    2   22 ar   
     7    2   50 1    
     8    3    5 ar   
     9    3   22 ar   
    10    3   51 1    
    11    4   23 ar   
    12    4   52 1    
    13    5   23 ar   
    14    5   53 1    
    15    6    7 ar   
    16    6   24 ar   
    17    6   54 1    
    18    7   25 ar   
    19    7   55 1    
    20    8    9 ar   
    21    8   26 ar   
    22    8   56 1    
    23    9   35 ar   
    24    9   57 1    
    25   10   24 ar   
    26   10   31 ar   
    27   10   58 1    
    28   11   27 ar   
    29   11   29 ar   
    30   11   59 1    
    31   12   28 ar   
    32   12   30 ar   
    33   12   60 1    
    34   13   14 1    
    35   13   34 1    
    36   13   61 1    
    37   13   62 1    
    38   14   34 1    
    39   14   63 1    
    40   14   64 1    
    41   15   17 1    
    42   15   38 1    
    43   15   65 1    
    44   15   66 1    
    45   16   18 1    
    46   16   38 1    
    47   16   67 1    
    48   16   68 1    
    49   17   41 1    
    50   17   69 1    
    51   17   70 1    
    52   18   41 1    
    53   18   71 1    
    54   18   72 1    
    55   19   20 1    
    56   19   21 1    
    57   19   73 1    
    58   19   74 1    
    59   20   38 1    
    60   20   75 1    
    61   20   76 1    
    62   21   43 1    
    63   21   77 1    
    64   21   78 1    
    65   22   36 1    
    66   23   45 1    
    67   24   37 1    
    68   25   31 ar   
    69   25   44 1    
    70   26   27 ar   
    71   26   44 1    
    72   27   28 ar   
    73   28   35 ar   
    74   29   30 ar   
    75   29   42 1    
    76   30   43 1    
    77   31   46 1    
    78   32   34 1    
    79   32   36 am   BACKBONE|DICT|INTERRES
    80   32   39 2    
    81   33   34 1    
    82   33   37 am   BACKBONE|DICT|INTERRES
    83   33   40 2    
    84   36   79 1    
    85   37   80 1    
    86   38   81 1    
@<TRIPOS>SUBSTRUCTURE
     1 cry         1 GROUP             0 A     ****    0 ROOT    
@<TRIPOS>MOLECULE
met-ligand
81   86    1
SMALL
USER_CHARGES


@<TRIPOS>ATOM
      1 C1          1.0454    1.0598   -8.9993 C.3       1 cry         0.1100 
      2 C2        -10.2614    2.0637    0.6273 C.ar      1 cry        -0.1150 
      3 C3         -9.4723    4.0327    1.8276 C.ar      1 cry        -0.1150 
      4 C4        -11.2084    1.8317    1.6477 C.ar      1 cry        -0.1150 
      5 C5        -10.4156    3.7972    2.8455 C.ar      1 cry        -0.1150 
      6 C6         -3.0283    3.6551   -2.8995 C.ar      1 cry        -0.1150 
      7 C7         -1.6480    3.4436   -3.0817 C.ar      1 cry        -0.1150 
      8 C8          0.8821    1.0103   -2.5123 C.ar      1 cry        -0.4849 
      9 C9          1.5806   -0.1479   -2.1282 C.ar      1 cry         0.4305 
     10 C10        -3.5104    2.1816   -4.7806 C.ar      1 cry        -0.1150 
     11 C11         1.3015    0.6849   -6.1955 C.ar      1 cry        -0.1673 
     12 C12         2.6473   -1.5919   -5.2714 C.ar      1 cry        -0.4407 
     13 C13        -7.2677    5.4441   -2.2567 C.3       1 cry        -0.1200 
     14 C14        -7.7877    4.8242   -3.5318 C.3       1 cry        -0.1200 
     15 C15        -1.7751   -4.6422   -7.8104 C.3       1 cry        -0.0744 
     16 C16        -0.9300   -2.6565   -6.6819 C.3       1 cry        -0.0744 
     17 C17        -3.0581   -4.5204   -6.9703 C.3       1 cry         0.3644 
     18 C18        -2.2398   -2.5942   -5.8817 C.3       1 cry         0.3644 
     19 C19         1.8485   -4.3047   -6.8341 C.3       1 cry        -0.1200 
     20 C20         0.6621   -4.1794   -7.8076 C.3       1 cry         0.1500 
     21 C21         3.1522   -3.6330   -7.3054 C.3       1 cry         0.1400 
     22 C22        -9.3965    3.1806    0.7048 C.ar      1 cry         0.0850 
     23 C23       -11.2905    2.7028    2.7491 C.ar      1 cry         0.2200 
     24 C24        -3.9661    3.0105   -3.7360 C.ar      1 cry         0.0850 
     25 C25        -1.1910    2.5932   -4.1078 C.ar      1 cry         0.0850 
     26 C26         0.7749    1.3064   -3.8843 C.ar      1 cry         0.2811 
     27 C27         1.3797    0.4281   -4.8120 C.ar      1 cry        -0.1736 
     28 C28         2.0682   -0.7172   -4.3300 C.ar      1 cry         0.7341 
     29 C29         1.8596   -0.2177   -7.1306 C.ar      1 cry         0.0494 
     30 C30         2.5172   -1.3764   -6.6652 C.ar      1 cry         0.1955 
     31 C31        -2.1283    1.9623   -4.9589 C.ar      1 cry         0.2200 
     32 C32        -8.3973    3.2015   -1.5965 C.2       1 cry         0.5000 
     33 C33        -6.0370    3.1670   -2.4239 C.2       1 cry         0.5000 
     34 C34        -7.3412    3.9327   -2.3803 C.3       1 cry         0.0000 
     35 N1          2.1926   -0.9697   -3.0068 N.ar      1 cry        -0.7311 
     36 N2         -8.4229    3.5029   -0.2814 N.am      1 cry        -0.3850 
     37 N3         -5.3531    3.2590   -3.5805 N.am      1 cry        -0.3850 
     38 N4         -0.6292   -4.0530   -7.0816 N.4       1 cry        -0.1000 
     39 O1         -9.1728    2.4212   -2.1447 O.2       1 cry        -0.5000 
     40 O2         -5.6245    2.4870   -1.4819 O.2       1 cry        -0.5000 
     41 O3         -3.2939   -3.1546   -6.6540 O.3       1 cry        -0.4000 
     42 O4          1.7712   -0.0531   -8.4971 O.3       1 cry        -0.3000 
     43 O5          2.9804   -2.2537   -7.6261 O.3       1 cry        -0.3000 
     44 O6          0.1587    2.4565   -4.3116 O.3       1 cry        -0.1850 
     45 F1        -12.2119    2.4893    3.7182 F         1 cry        -0.2200 
     46 F2         -1.7083    1.1538   -5.9612 F         1 cry        -0.2200 
     47 H1          1.0464    1.0279  -10.0892 H         1 cry         0.0300 
     48 H2          0.0045    1.0393   -8.6703 H         1 cry         0.0300 
     49 H3          1.5048    2.0021   -8.6961 H         1 cry         0.0300 
     50 H4        -10.2163    1.3722   -0.1997 H         1 cry         0.1150 
     51 H5         -8.8165    4.8862    1.9101 H         1 cry         0.1150 
     52 H6        -11.8767    0.9848    1.5811 H         1 cry         0.1150 
     53 H7        -10.4707    4.4586    3.6961 H         1 cry         0.1150 
     54 H8         -3.3588    4.3238   -2.1182 H         1 cry         0.1150 
     55 H9         -0.9402    3.9508   -2.4431 H         1 cry         0.1150 
     56 H10         0.4355    1.6532   -1.7689 H         1 cry         0.1970 
     57 H11         1.6818   -0.4021   -1.0830 H         1 cry         0.0550 
     58 H12        -4.2167    1.7030   -5.4435 H         1 cry         0.1150 
     59 H13         0.7796    1.5696   -6.5284 H         1 cry         0.1528 
     60 H14         3.1452   -2.4725   -4.8998 H         1 cry         0.2022 
     61 H15        -7.9871    5.9446   -1.6112 H         1 cry         0.0600 
     62 H16        -6.2806    5.9024   -2.2784 H         1 cry         0.0600 
     63 H17        -7.1659    4.9145   -4.4193 H         1 cry         0.0600 
     64 H18        -8.8570    4.8896   -3.7256 H         1 cry         0.0600 
     65 H19        -1.5791   -5.6926   -8.0228 H         1 cry         0.0600 
     66 H20        -1.9044   -4.1348   -8.7672 H         1 cry         0.0600 
     67 H21        -1.0033   -2.0209   -7.5652 H         1 cry         0.0600 
     68 H22        -0.1229   -2.2602   -6.0690 H         1 cry         0.0600 
     69 H23        -3.9111   -4.9016   -7.5321 H         1 cry         0.0300 
     70 H24        -2.9923   -5.1114   -6.0570 H         1 cry         0.0300 
     71 H25        -2.4864   -1.5581   -5.6520 H         1 cry         0.0300 
     72 H26        -2.1470   -3.1131   -4.9283 H         1 cry         0.0300 
     73 H27         1.5769   -3.8749   -5.8816 H         1 cry         0.0600 
     74 H28         2.0310   -5.3595   -6.6244 H         1 cry         0.0600 
     75 H29         0.6562   -5.0600   -8.4503 H         1 cry         0.0600 
     76 H30         0.7806   -3.3233   -8.4745 H         1 cry         0.0600 
     77 H31         3.9434   -3.7534   -6.5660 H         1 cry         0.0300 
     78 H32         3.5050   -4.1326   -8.2079 H         1 cry         0.0300 
     79 H33        -7.7072    4.1503    0.0300 H         1 cry         0.3000 
     80 H34        -5.8316    3.6564   -4.3759 H         1 cry         0.3000 
     81 H35        -0.5542   -4.5766   -6.2053 H         1 cry         0.2900 
@<TRIPOS>BOND
     1    1   42 1    
     2    1   47 1    
     3    1   48 1    
     4    1   49 1    
     5    2    4 ar   
     6    2   22 ar   
     7    2   50 1    
     8    3    5 ar   
     9    3   22 ar   
    10    3   51 1    
    11    4   23 ar   
    12    4   52 1    
    13    5   23 ar   
    14    5   53 1    
    15    6    7 ar   
    16    6   24 ar   
    17    6   54 1    
    18    7   25 ar   
    19    7   55 1    
    20    8    9 ar   
    21    8   26 ar   
    22    8   56 1    
    23    9   35 ar   
    24    9   57 1    
    25   10   24 ar   
    26   10   31 ar   
    27   10   58 1    
    28   11   27 ar   
    29   11   29 ar   
    30   11   59 1    
    31   12   28 ar   
    32   12   30 ar   
    33   12   60 1    
    34   13   14 1    
    35   13   34 1    
    36   13   61 1    
    37   13   62 1    
    38   14   34 1    
    39   14   63 1    
    40   14   64 1    
    41   15   17 1    
    42   15   38 1    
    43   15   65 1    
    44   15   66 1    
    45   16   18 1    
    46   16   38 1    
    47   16   67 1    
    48   16   68 1    
    49   17   41 1    
    50   17   69 1    
    51   17   70 1    
    52   18   41 1    
    53   18   71 1    
    54   18   72 1    
    55   19   20 1    
    56   19   21 1    
    57   19   73 1    
    58   19   74 1    
    59   20   38 1    
    60   20   75 1    
    61   20   76 1    
    62   21   43 1    
    63   21   77 1    
    64   21   78 1    
    65   22   36 1    
    66   23   45 1    
    67   24   37 1    
    68   25   31 ar   
    69   25   44 1    
    70   26   27 ar   
    71   26   44 1    
    72   27   28 ar   
    73   28   35 ar   
    74   29   30 ar   
    75   29   42 1    
    76   30   43 1    
    77   31   46 1    
    78   32   34 1    
    79   32   36 am   BACKBONE|DICT|INTERRES
    80   32   39 2    
    81   33   34 1    
    82   33   37 am   BACKBONE|DICT|INTERRES
    83   33   40 2    
    84   36   79 1    
    85   37   80 1    
    86   38   81 1    
@<TRIPOS>SUBSTRUCTURE
     1 cry         1 GROUP             0 A     ****    0 ROOT    
@<TRIPOS>MOLECULE
met-ligand
81   86    1
SMALL
USER_CHARGES


@<TRIPOS>ATOM
      1 C1          1.2077    1.2755   -8.9903 C.3       1 cry         0.1100 
      2 C2        -10.1708    2.1899    0.8453 C.ar      1 cry        -0.1150 
      3 C3         -9.4410    4.3188    1.7795 C.ar      1 cry        -0.1150 
      4 C4        -11.0706    2.0358    1.9209 C.ar      1 cry        -0.1150 
      5 C5        -10.3356    4.1634    2.8533 C.ar      1 cry        -0.1150 
      6 C6         -3.0810    3.6813   -2.9013 C.ar      1 cry        -0.1150 
      7 C7         -1.6942    3.5243   -3.0822 C.ar      1 cry        -0.1150 
      8 C8          0.8651    1.1343   -2.5026 C.ar      1 cry        -0.4849 
      9 C9          1.5255   -0.0465   -2.1221 C.ar      1 cry         0.4305 
     10 C10        -3.5019    2.2060   -4.7941 C.ar      1 cry        -0.1150 
     11 C11         1.3160    0.8246   -6.1863 C.ar      1 cry        -0.1673 
     12 C12         2.5236   -1.5292   -5.2607 C.ar      1 cry        -0.4407 
     13 C13        -7.4056    5.3500   -2.4717 C.3       1 cry        -0.1200 
     14 C14        -7.9345    4.5829   -3.6610 C.3       1 cry        -0.1200 
     15 C15        -0.2964   -7.4211   -6.9813 C.3       1 cry        -0.0744 
     16 C16        -1.2452   -5.4165   -7.9894 C.3       1 cry        -0.0744 
     17 C17        -1.7155   -7.8414   -6.5604 C.3       1 cry         0.3644 
     18 C18        -2.6305   -5.8909   -7.5182 C.3       1 cry         0.3644 
     19 C19         1.3650   -3.9714   -7.2923 C.3       1 cry        -0.1200 
     20 C20         1.1830   -5.4949   -7.3874 C.3       1 cry         0.1500 
     21 C21         2.8425   -3.5440   -7.3535 C.3       1 cry         0.1400 
     22 C22        -9.3565    3.3433    0.7622 C.ar      1 cry         0.0850 
     23 C23       -11.1571    3.0250    2.9203 C.ar      1 cry         0.2200 
     24 C24        -3.9925    3.0083   -3.7440 C.ar      1 cry         0.0850 
     25 C25        -1.2021    2.6985   -4.1120 C.ar      1 cry         0.0850 
     26 C26         0.7661    1.4368   -3.8744 C.ar      1 cry         0.2811 
     27 C27         1.3501    0.5462   -4.8042 C.ar      1 cry        -0.1736 
     28 C28         1.9771   -0.6330   -4.3231 C.ar      1 cry         0.7341 
     29 C29         1.8756   -0.0796   -7.1191 C.ar      1 cry         0.0494 
     30 C30         2.4613   -1.2743   -6.6493 C.ar      1 cry         0.1955 
     31 C31        -2.1131    2.0433   -4.9722 C.ar      1 cry         0.2200 
     32 C32        -8.4219    3.1445   -1.5560 C.2       1 cry         0.5000 
     33 C33        -6.0790    3.1198   -2.4465 C.2       1 cry         0.5000 
     34 C34        -7.4170    3.8308   -2.4415 C.3       1 cry         0.0000 
     35 N1          2.0932   -0.8957   -3.0020 N.ar      1 cry        -0.7311 
     36 N2         -8.4232    3.5854   -0.2814 N.am      1 cry        -0.3850 
     37 N3         -5.3884    3.2082   -3.5993 N.am      1 cry        -0.3850 
     38 N4         -0.1984   -5.9452   -7.0816 N.4       1 cry        -0.1000 
     39 O1         -9.1842    2.2833   -1.9974 O.2       1 cry        -0.5000 
     40 O2         -5.6448    2.4869   -1.4817 O.2       1 cry        -0.5000 
     41 O3         -2.6583   -7.3122   -7.4844 O.3       1 cry        -0.4000 
     42 O4          1.8613    0.1203   -8.4839 O.3       1 cry        -0.3000 
     43 O5          2.9626   -2.1456   -7.5925 O.3       1 cry        -0.3000 
     44 O6          0.1543    2.5912   -4.2940 O.3       1 cry        -0.1850 
     45 F1        -12.0282    2.8870    3.9470 F         1 cry        -0.2200 
     46 F2         -1.6609    1.2641   -5.9824 F         1 cry        -0.2200 
     47 H1          1.2621    1.2711  -10.0792 H         1 cry         0.0300 
     48 H2          0.1521    1.2929   -8.7136 H         1 cry         0.0300 
     49 H3          1.6893    2.1895   -8.6410 H         1 cry         0.0300 
     50 H4        -10.1187    1.4110    0.0995 H         1 cry         0.1150 
     51 H5         -8.8227    5.2033    1.7377 H         1 cry         0.1150 
     52 H6        -11.6969    1.1573    1.9789 H         1 cry         0.1150 
     53 H7        -10.3950    4.9190    3.6228 H         1 cry         0.1150 
     54 H8         -3.4405    4.3322   -2.1177 H         1 cry         0.1150 
     55 H9         -1.0066    4.0465   -2.4325 H         1 cry         0.1150 
     56 H10         0.4328    1.7871   -1.7581 H         1 cry         0.1970 
     57 H11         1.6147   -0.3109   -1.0816 H         1 cry         0.0550 
     58 H12        -4.1870    1.7061   -5.4644 H         1 cry         0.1150 
     59 H13         0.8414    1.7349   -6.5186 H         1 cry         0.1528 
     60 H14         2.9657   -2.4380   -4.8888 H         1 cry         0.2022 
     61 H15        -8.1270    5.8837   -1.8550 H         1 cry         0.0600 
     62 H16        -6.4382    5.8416   -2.5651 H         1 cry         0.0600 
     63 H17        -7.3440    4.6042   -4.5740 H         1 cry         0.0600 
     64 H18        -9.0115    4.5851   -3.8257 H         1 cry         0.0600 
     65 H19         0.4235   -7.7932   -6.2512 H         1 cry         0.0600 
     66 H20        -0.0430   -7.8727   -7.9420 H         1 cry         0.0600 
     67 H21        -1.0560   -5.7512   -9.0105 H         1 cry         0.0600 
     68 H22        -1.2371   -4.3269   -7.9961 H         1 cry         0.0600 
     69 H23        -1.7972   -8.9286   -6.5595 H         1 cry         0.0300 
     70 H24        -1.9443   -7.5127   -5.5458 H         1 cry         0.0300 
     71 H25        -3.4016   -5.5394   -8.2045 H         1 cry         0.0300 
     72 H26        -2.8694   -5.4829   -6.5340 H         1 cry         0.0300 
     73 H27         0.8363   -3.4862   -8.1122 H         1 cry         0.0600 
     74 H28         0.9148   -3.6041   -6.3692 H         1 cry         0.0600 
     75 H29         1.8594   -5.9704   -6.6747 H         1 cry         0.0600 
     76 H30         1.4745   -5.8468   -8.3784 H         1 cry         0.0600 
     77 H31         3.3922   -3.8607   -6.4674 H         1 cry         0.0300 
     78 H32         3.3266   -4.0437   -8.1932 H         1 cry         0.0300 
     79 H33        -7.7167    4.2765   -0.0571 H         1 cry         0.3000 
     80 H34        -5.8785    3.5578   -4.4097 H         1 cry         0.3000 
     81 H35        -0.4320   -5.5942   -6.1449 H         1 cry         0.2900 
@<TRIPOS>BOND
     1    1   42 1    
     2    1   47 1    
     3    1   48 1    
     4    1   49 1    
     5    2    4 ar   
     6    2   22 ar   
     7    2   50 1    
     8    3    5 ar   
     9    3   22 ar   
    10    3   51 1    
    11    4   23 ar   
    12    4   52 1    
    13    5   23 ar   
    14    5   53 1    
    15    6    7 ar   
    16    6   24 ar   
    17    6   54 1    
    18    7   25 ar   
    19    7   55 1    
    20    8    9 ar   
    21    8   26 ar   
    22    8   56 1    
    23    9   35 ar   
    24    9   57 1    
    25   10   24 ar   
    26   10   31 ar   
    27   10   58 1    
    28   11   27 ar   
    29   11   29 ar   
    30   11   59 1    
    31   12   28 ar   
    32   12   30 ar   
    33   12   60 1    
    34   13   14 1    
    35   13   34 1    
    36   13   61 1    
    37   13   62 1    
    38   14   34 1    
    39   14   63 1    
    40   14   64 1    
    41   15   17 1    
    42   15   38 1    
    43   15   65 1    
    44   15   66 1    
    45   16   18 1    
    46   16   38 1    
    47   16   67 1    
    48   16   68 1    
    49   17   41 1    
    50   17   69 1    
    51   17   70 1    
    52   18   41 1    
    53   18   71 1    
    54   18   72 1    
    55   19   20 1    
    56   19   21 1    
    57   19   73 1    
    58   19   74 1    
    59   20   38 1    
    60   20   75 1    
    61   20   76 1    
    62   21   43 1    
    63   21   77 1    
    64   21   78 1    
    65   22   36 1    
    66   23   45 1    
    67   24   37 1    
    68   25   31 ar   
    69   25   44 1    
    70   26   27 ar   
    71   26   44 1    
    72   27   28 ar   
    73   28   35 ar   
    74   29   30 ar   
    75   29   42 1    
    76   30   43 1    
    77   31   46 1    
    78   32   34 1    
    79   32   36 am   BACKBONE|DICT|INTERRES
    80   32   39 2    
    81   33   34 1    
    82   33   37 am   BACKBONE|DICT|INTERRES
    83   33   40 2    
    84   36   79 1    
    85   37   80 1    
    86   38   81 1    
@<TRIPOS>SUBSTRUCTURE
     1 cry         1 GROUP             0 A     ****    0 ROOT    
@<TRIPOS>MOLECULE
met-ligand
81   86    1
SMALL
USER_CHARGES


@<TRIPOS>ATOM
      1 C1          1.6951    0.2537   -9.0749 C.3       1 cry         0.1100 
      2 C2        -10.3967    2.3314   -0.6200 C.ar      1 cry        -0.1150 
      3 C3         -8.7508    2.4841    1.1750 C.ar      1 cry        -0.1150 
      4 C4        -11.3511    1.8534    0.2982 C.ar      1 cry        -0.1150 
      5 C5         -9.7069    2.0036    2.0913 C.ar      1 cry        -0.1150 
      6 C6         -2.9710    2.0275   -5.1791 C.ar      1 cry        -0.1150 
      7 C7         -1.5993    1.7223   -5.2961 C.ar      1 cry        -0.1150 
      8 C8          1.1879    0.5498   -2.6017 C.ar      1 cry        -0.4849 
      9 C9          1.7944   -0.6264   -2.1335 C.ar      1 cry         0.4305 
     10 C10        -2.5172    3.2514   -3.1174 C.ar      1 cry        -0.1150 
     11 C11         1.7792    0.0236   -6.2439 C.ar      1 cry        -0.1673 
     12 C12         2.9630   -2.2596   -5.1316 C.ar      1 cry        -0.4407 
     13 C13        -6.8583    5.3642   -2.7997 C.3       1 cry        -0.1200 
     14 C14        -7.1870    4.7902   -4.1581 C.3       1 cry        -0.1200 
     15 C15        -1.3148   -5.3890   -7.8684 C.3       1 cry        -0.0744 
     16 C16        -0.4724   -3.2819   -6.9728 C.3       1 cry        -0.0744 
     17 C17        -2.6951   -5.0297   -7.2898 C.3       1 cry         0.3644 
     18 C18        -1.8880   -2.9910   -6.4433 C.3       1 cry         0.3644 
     19 C19         2.2120   -5.0674   -6.5191 C.3       1 cry        -0.1200 
     20 C20         1.1201   -5.0737   -7.6067 C.3       1 cry         0.1500 
     21 C21         3.5384   -4.4255   -6.9732 C.3       1 cry         0.1400 
     22 C22        -9.0844    2.6446   -0.1871 C.ar      1 cry         0.0850 
     23 C23       -11.0067    1.6883    1.6527 C.ar      1 cry         0.2200 
     24 C24        -3.4378    2.7809   -4.0826 C.ar      1 cry         0.0850 
     25 C25        -0.6821    2.1942   -4.3338 C.ar      1 cry         0.0850 
     26 C26         1.1764    0.7925   -3.9893 C.ar      1 cry         0.2811 
     27 C27         1.7740   -0.1610   -4.8455 C.ar      1 cry        -0.1736 
     28 C28         2.3737   -1.3132   -4.2746 C.ar      1 cry         0.7341 
     29 C29         2.3401   -0.9557   -7.0986 C.ar      1 cry         0.0494 
     30 C30         2.9141   -2.1177   -6.5386 C.ar      1 cry         0.1955 
     31 C31        -1.1443    2.9693   -3.2490 C.ar      1 cry         0.2200 
     32 C32        -7.9877    3.0672   -2.3890 C.2       1 cry         0.5000 
     33 C33        -5.5663    3.1135   -2.8973 C.2       1 cry         0.5000 
     34 C34        -6.8712    3.8608   -2.9942 C.3       1 cry         0.0000 
     35 N1          2.4111   -1.5117   -2.9381 N.ar      1 cry        -0.7311 
     36 N2         -8.0883    3.1764   -1.0481 N.am      1 cry        -0.3850 
     37 N3         -4.8140    3.1176   -4.0110 N.am      1 cry        -0.3850 
     38 N4         -0.2342   -4.7451   -7.0834 N.4       1 cry        -0.1000 
     39 O1         -8.7261    2.3740   -3.0880 O.2       1 cry        -0.5000 
     40 O2         -5.2258    2.5047   -1.8812 O.2       1 cry        -0.5000 
     41 O3         -2.8477   -3.6149   -7.2853 O.3       1 cry        -0.4000 
     42 O4          2.3362   -0.8628   -8.4742 O.3       1 cry        -0.3000 
     43 O5          3.3758   -3.0773   -7.4169 O.3       1 cry        -0.3000 
     44 O6          0.6595    1.9602   -4.4917 O.3       1 cry        -0.1850 
     45 F1        -11.9295    1.2363    2.5338 F         1 cry        -0.2200 
     46 F2         -0.2659    3.4597   -2.3409 F         1 cry        -0.2200 
     47 H1          1.7663    0.1659  -10.1581 H         1 cry         0.0300 
     48 H2          0.6364    0.2944   -8.8154 H         1 cry         0.0300 
     49 H3          2.1736    1.1928   -8.7903 H         1 cry         0.0300 
     50 H4        -10.6997    2.4746   -1.6473 H         1 cry         0.1150 
     51 H5         -7.7584    2.7374    1.5249 H         1 cry         0.1150 
     52 H6        -12.3510    1.6214   -0.0362 H         1 cry         0.1150 
     53 H7         -9.4461    1.8835    3.1318 H         1 cry         0.1150 
     54 H8         -3.6620    1.6782   -5.9325 H         1 cry         0.1150 
     55 H9         -1.2442    1.1459   -6.1382 H         1 cry         0.1150 
     56 H10         0.7368    1.2428   -1.9073 H         1 cry         0.1970 
     57 H11         1.8150   -0.8521   -1.0816 H         1 cry         0.0550 
     58 H12        -2.8534    3.8511   -2.2838 H         1 cry         0.1150 
     59 H13         1.3251    0.9152   -6.6464 H         1 cry         0.1528 
     60 H14         3.3867   -3.1396   -4.6779 H         1 cry         0.2022 
     61 H15        -7.6692    5.8170   -2.2305 H         1 cry         0.0600 
     62 H16        -5.8918    5.8499   -2.6793 H         1 cry         0.0600 
     63 H17        -6.4549    4.9268   -4.9497 H         1 cry         0.0600 
     64 H18        -8.2223    4.8397   -4.4909 H         1 cry         0.0600 
     65 H19        -1.1802   -6.4698   -7.8465 H         1 cry         0.0600 
     66 H20        -1.2517   -5.0741   -8.9117 H         1 cry         0.0600 
     67 H21        -0.3374   -2.8039   -7.9463 H         1 cry         0.0600 
     68 H22         0.2532   -2.8429   -6.2883 H         1 cry         0.0600 
     69 H23        -3.4821   -5.4634   -7.9090 H         1 cry         0.0300 
     70 H24        -2.8236   -5.4315   -6.2816 H         1 cry         0.0300 
     71 H25        -2.0662   -1.9163   -6.4387 H         1 cry         0.0300 
     72 H26        -2.0205   -3.3321   -5.4164 H         1 cry         0.0300 
     73 H27         1.8725   -4.5700   -5.6189 H         1 cry         0.0600 
     74 H28         2.4002   -6.0944   -6.2028 H         1 cry         0.0600 
     75 H29         1.1122   -6.0644   -8.0643 H         1 cry         0.0600 
     76 H30         1.3652   -4.3850   -8.4170 H         1 cry         0.0600 
     77 H31         4.2927   -4.4827   -6.1870 H         1 cry         0.0300 
     78 H32         3.9434   -4.9966   -7.8088 H         1 cry         0.0300 
     79 H33        -7.3413    3.6795   -0.5863 H         1 cry         0.3000 
     80 H34        -5.2469    3.4455   -4.8618 H         1 cry         0.3000 
     81 H35        -0.3358   -5.1106   -6.1297 H         1 cry         0.2900 
@<TRIPOS>BOND
     1    1   42 1    
     2    1   47 1    
     3    1   48 1    
     4    1   49 1    
     5    2    4 ar   
     6    2   22 ar   
     7    2   50 1    
     8    3    5 ar   
     9    3   22 ar   
    10    3   51 1    
    11    4   23 ar   
    12    4   52 1    
    13    5   23 ar   
    14    5   53 1    
    15    6    7 ar   
    16    6   24 ar   
    17    6   54 1    
    18    7   25 ar   
    19    7   55 1    
    20    8    9 ar   
    21    8   26 ar   
    22    8   56 1    
    23    9   35 ar   
    24    9   57 1    
    25   10   24 ar   
    26   10   31 ar   
    27   10   58 1    
    28   11   27 ar   
    29   11   29 ar   
    30   11   59 1    
    31   12   28 ar   
    32   12   30 ar   
    33   12   60 1    
    34   13   14 1    
    35   13   34 1    
    36   13   61 1    
    37   13   62 1    
    38   14   34 1    
    39   14   63 1    
    40   14   64 1    
    41   15   17 1    
    42   15   38 1    
    43   15   65 1    
    44   15   66 1    
    45   16   18 1    
    46   16   38 1    
    47   16   67 1    
    48   16   68 1    
    49   17   41 1    
    50   17   69 1    
    51   17   70 1    
    52   18   41 1    
    53   18   71 1    
    54   18   72 1    
    55   19   20 1    
    56   19   21 1    
    57   19   73 1    
    58   19   74 1    
    59   20   38 1    
    60   20   75 1    
    61   20   76 1    
    62   21   43 1    
    63   21   77 1    
    64   21   78 1    
    65   22   36 1    
    66   23   45 1    
    67   24   37 1    
    68   25   31 ar   
    69   25   44 1    
    70   26   27 ar   
    71   26   44 1    
    72   27   28 ar   
    73   28   35 ar   
    74   29   30 ar   
    75   29   42 1    
    76   30   43 1    
    77   31   46 1    
    78   32   34 1    
    79   32   36 am   BACKBONE|DICT|INTERRES
    80   32   39 2    
    81   33   34 1    
    82   33   37 am   BACKBONE|DICT|INTERRES
    83   33   40 2    
    84   36   79 1    
    85   37   80 1    
    86   38   81 1    
@<TRIPOS>SUBSTRUCTURE
     1 cry         1 GROUP             0 A     ****    0 ROOT    
@<TRIPOS>MOLECULE
met-ligand
81   86    1
SMALL
USER_CHARGES


@<TRIPOS>ATOM
      1 C1          0.9809    0.9429   -9.1061 C.3       1 cry         0.1100 
      2 C2         -9.6735    2.0527    0.9662 C.ar      1 cry        -0.1150 
      3 C3         -9.6074    4.4682    1.2926 C.ar      1 cry        -0.1150 
      4 C4        -10.4751    1.9244    2.1188 C.ar      1 cry        -0.1150 
      5 C5        -10.4045    4.3376    2.4461 C.ar      1 cry        -0.1150 
      6 C6         -3.4428    2.0885   -4.9878 C.ar      1 cry        -0.1150 
      7 C7         -2.0504    1.9272   -5.1379 C.ar      1 cry        -0.1150 
      8 C8          0.9486    1.0897   -2.6140 C.ar      1 cry        -0.4849 
      9 C9          1.6456   -0.0633   -2.2103 C.ar      1 cry         0.4305 
     10 C10        -3.0644    3.5593   -3.0797 C.ar      1 cry        -0.1150 
     11 C11         1.2824    0.6512   -6.2952 C.ar      1 cry        -0.1673 
     12 C12         2.6458   -1.5997   -5.3300 C.ar      1 cry        -0.4407 
     13 C13        -7.7998    4.8394   -3.2911 C.3       1 cry        -0.1200 
     14 C14        -8.1608    3.6790   -4.1895 C.3       1 cry        -0.1200 
     15 C15        -1.7599   -4.7504   -7.7650 C.3       1 cry        -0.0744 
     16 C16        -0.8917   -2.7283   -6.7275 C.3       1 cry        -0.0744 
     17 C17        -3.0059   -4.6202   -6.8727 C.3       1 cry         0.3644 
     18 C18        -2.1697   -2.6428   -5.8817 C.3       1 cry         0.3644 
     19 C19         1.8696   -4.3852   -6.8317 C.3       1 cry        -0.1200 
     20 C20         0.6851   -4.3030   -7.8095 C.3       1 cry         0.1500 
     21 C21         3.1568   -3.6867   -7.3116 C.3       1 cry         0.1400 
     22 C22        -9.2454    3.3317    0.5371 C.ar      1 cry         0.0850 
     23 C23       -10.8449    3.0660    2.8552 C.ar      1 cry         0.2200 
     24 C24        -3.9563    2.8869   -3.9439 C.ar      1 cry         0.0850 
     25 C25        -1.1624    2.5886   -4.2634 C.ar      1 cry         0.0850 
     26 C26         0.8142    1.3469   -3.9915 C.ar      1 cry         0.2811 
     27 C27         1.3896    0.4360   -4.9059 C.ar      1 cry        -0.1736 
     28 C28         2.0824   -0.6981   -4.4043 C.ar      1 cry         0.7341 
     29 C29         1.8259   -0.2779   -7.2133 C.ar      1 cry         0.0494 
     30 C30         2.4958   -1.4203   -6.7263 C.ar      1 cry         0.1955 
     31 C31        -1.6733    3.4140   -3.2428 C.ar      1 cry         0.2200 
     32 C32        -8.4033    2.8343   -1.7562 C.2       1 cry         0.5000 
     33 C33        -6.0908    2.9518   -2.6998 C.2       1 cry         0.5000 
     34 C34        -7.5276    3.4191   -2.8276 C.3       1 cry         0.0000 
     35 N1          2.2347   -0.9137   -3.0774 N.ar      1 cry        -0.7311 
     36 N2         -8.4235    3.5356   -0.6054 N.am      1 cry        -0.3850 
     37 N3         -5.3592    3.0522   -3.8273 N.am      1 cry        -0.3850 
     38 N4         -0.5988   -4.1388   -7.0816 N.4       1 cry        -0.1000 
     39 O1         -9.0609    1.8123   -1.9549 O.2       1 cry        -0.5000 
     40 O2         -5.6228    2.4868   -1.6590 O.2       1 cry        -0.5000 
     41 O3         -3.2489   -3.2461   -6.5879 O.3       1 cry        -0.4000 
     42 O4          1.7161   -0.1525   -8.5825 O.3       1 cry        -0.3000 
     43 O5          2.9488   -2.3207   -7.6693 O.3       1 cry        -0.3000 
     44 O6          0.1935    2.4874   -4.4352 O.3       1 cry        -0.1850 
     45 F1        -11.6229    2.9425    3.9567 F         1 cry        -0.2200 
     46 F2         -0.8222    4.0800   -2.4257 F         1 cry        -0.2200 
     47 H1          0.9744    0.8838  -10.1935 H         1 cry         0.0300 
     48 H2         -0.0562    0.9242   -8.7681 H         1 cry         0.0300 
     49 H3          1.4333    1.8969   -8.8325 H         1 cry         0.0300 
     50 H4         -9.3885    1.1603    0.4282 H         1 cry         0.1150 
     51 H5         -9.2729    5.4495    0.9885 H         1 cry         0.1150 
     52 H6        -10.8052    0.9468    2.4393 H         1 cry         0.1150 
     53 H7        -10.6800    5.2129    3.0152 H         1 cry         0.1150 
     54 H8         -4.1146    1.5871   -5.6683 H         1 cry         0.1150 
     55 H9         -1.6662    1.3075   -5.9343 H         1 cry         0.1150 
     56 H10         0.5184    1.7593   -1.8825 H         1 cry         0.1970 
     57 H11         1.7668   -0.2881   -1.1609 H         1 cry         0.0550 
     58 H12        -3.4383    4.1946   -2.2899 H         1 cry         0.1150 
     59 H13         0.7592    1.5276   -6.6437 H         1 cry         0.1528 
     60 H14         3.1509   -2.4680   -4.9411 H         1 cry         0.2022 
     61 H15        -8.6164    5.3837   -2.8201 H         1 cry         0.0600 
     62 H16        -6.9432    5.4537   -3.5642 H         1 cry         0.0600 
     63 H17        -7.5742    3.5375   -5.0944 H         1 cry         0.0600 
     64 H18        -9.2173    3.4412   -4.3050 H         1 cry         0.0600 
     65 H19        -1.5625   -5.8051   -7.9628 H         1 cry         0.0600 
     66 H20        -1.9285   -4.2638   -8.7277 H         1 cry         0.0600 
     67 H21        -0.9957   -2.1287   -7.6338 H         1 cry         0.0600 
     68 H22        -0.0672   -2.3100   -6.1554 H         1 cry         0.0600 
     69 H23        -3.8777   -5.0358   -7.3791 H         1 cry         0.0300 
     70 H24        -2.8742   -5.1825   -5.9475 H         1 cry         0.0300 
     71 H25        -2.4159   -1.5982   -5.6899 H         1 cry         0.0300 
     72 H26        -2.0286   -3.1129   -4.9084 H         1 cry         0.0300 
     73 H27         1.5770   -3.9600   -5.8815 H         1 cry         0.0600 
     74 H28         2.0816   -5.4308   -6.6091 H         1 cry         0.0600 
     75 H29         0.6705   -5.2134   -8.4088 H         1 cry         0.0600 
     76 H30         0.8042   -3.4816   -8.5165 H         1 cry         0.0600 
     77 H31         3.9501   -3.7707   -6.5686 H         1 cry         0.0300 
     78 H32         3.5267   -4.1982   -8.1996 H         1 cry         0.0300 
     79 H33        -7.8571    4.3720   -0.5839 H         1 cry         0.3000 
     80 H34        -5.8570    3.2780   -4.6754 H         1 cry         0.3000 
     81 H35        -0.5202   -4.6321   -6.1884 H         1 cry         0.2900 
@<TRIPOS>BOND
     1    1   42 1    
     2    1   47 1    
     3    1   48 1    
     4    1   49 1    
     5    2    4 ar   
     6    2   22 ar   
     7    2   50 1    
     8    3    5 ar   
     9    3   22 ar   
    10    3   51 1    
    11    4   23 ar   
    12    4   52 1    
    13    5   23 ar   
    14    5   53 1    
    15    6    7 ar   
    16    6   24 ar   
    17    6   54 1    
    18    7   25 ar   
    19    7   55 1    
    20    8    9 ar   
    21    8   26 ar   
    22    8   56 1    
    23    9   35 ar   
    24    9   57 1    
    25   10   24 ar   
    26   10   31 ar   
    27   10   58 1    
    28   11   27 ar   
    29   11   29 ar   
    30   11   59 1    
    31   12   28 ar   
    32   12   30 ar   
    33   12   60 1    
    34   13   14 1    
    35   13   34 1    
    36   13   61 1    
    37   13   62 1    
    38   14   34 1    
    39   14   63 1    
    40   14   64 1    
    41   15   17 1    
    42   15   38 1    
    43   15   65 1    
    44   15   66 1    
    45   16   18 1    
    46   16   38 1    
    47   16   67 1    
    48   16   68 1    
    49   17   41 1    
    50   17   69 1    
    51   17   70 1    
    52   18   41 1    
    53   18   71 1    
    54   18   72 1    
    55   19   20 1    
    56   19   21 1    
    57   19   73 1    
    58   19   74 1    
    59   20   38 1    
    60   20   75 1    
    61   20   76 1    
    62   21   43 1    
    63   21   77 1    
    64   21   78 1    
    65   22   36 1    
    66   23   45 1    
    67   24   37 1    
    68   25   31 ar   
    69   25   44 1    
    70   26   27 ar   
    71   26   44 1    
    72   27   28 ar   
    73   28   35 ar   
    74   29   30 ar   
    75   29   42 1    
    76   30   43 1    
    77   31   46 1    
    78   32   34 1    
    79   32   36 am   BACKBONE|DICT|INTERRES
    80   32   39 2    
    81   33   34 1    
    82   33   37 am   BACKBONE|DICT|INTERRES
    83   33   40 2    
    84   36   79 1    
    85   37   80 1    
    86   38   81 1    
@<TRIPOS>SUBSTRUCTURE
     1 cry         1 GROUP             0 A     ****    0 ROOT    
@<TRIPOS>MOLECULE
met-ligand
81   86    1
SMALL
USER_CHARGES


@<TRIPOS>ATOM
      1 C1          0.9925    0.3908   -8.8649 C.3       1 cry         0.1100 
      2 C2         -9.3531    4.3544    1.5669 C.ar      1 cry        -0.1150 
      3 C3         -9.9349    2.0648    0.9662 C.ar      1 cry        -0.1150 
      4 C4        -10.1536    4.2620    2.7206 C.ar      1 cry        -0.1150 
      5 C5        -10.7390    1.9741    2.1207 C.ar      1 cry        -0.1150 
      6 C6         -3.5196    2.0858   -4.9668 C.ar      1 cry        -0.1150 
      7 C7         -2.1271    1.9247   -5.1248 C.ar      1 cry        -0.1150 
      8 C8          0.8729    1.3118   -2.4449 C.ar      1 cry        -0.4849 
      9 C9          1.5768    0.2269   -1.8951 C.ar      1 cry         0.4305 
     10 C10        -3.1277    3.5635   -3.0696 C.ar      1 cry        -0.1150 
     11 C11         1.2874    0.4480   -6.0426 C.ar      1 cry        -0.1673 
     12 C12         2.6514   -1.6494   -4.7896 C.ar      1 cry        -0.4407 
     13 C13        -7.8175    4.8752   -3.0872 C.3       1 cry        -0.1200 
     14 C14        -8.2108    3.7739   -4.0446 C.3       1 cry        -0.1200 
     15 C15        -1.4601   -6.6139   -7.9078 C.3       1 cry        -0.0744 
     16 C16        -2.1232   -4.2860   -7.6106 C.3       1 cry        -0.0744 
     17 C17        -2.7102   -7.0265   -7.1131 C.3       1 cry         0.3644 
     18 C18        -3.3726   -4.7772   -6.8555 C.3       1 cry         0.3644 
     19 C19         1.0541   -3.9280   -7.1734 C.3       1 cry        -0.1200 
     20 C20         0.2461   -4.8268   -8.1188 C.3       1 cry         0.1500 
     21 C21         2.3507   -3.3907   -7.8046 C.3       1 cry         0.1400 
     22 C22        -9.2456    3.2660    0.6730 C.ar      1 cry         0.0850 
     23 C23       -10.8539    3.0736    2.9932 C.ar      1 cry         0.2200 
     24 C24        -4.0258    2.8803   -3.9175 C.ar      1 cry         0.0850 
     25 C25        -1.2332    2.5849   -4.2564 C.ar      1 cry         0.0850 
     26 C26         0.7530    1.3988   -3.8448 C.ar      1 cry         0.2811 
     27 C27         1.3563    0.3948   -4.6348 C.ar      1 cry        -0.1736 
     28 C28         2.0481   -0.6633   -3.9887 C.ar      1 cry         0.7341 
     29 C29         1.8916   -0.5527   -6.8408 C.ar      1 cry         0.0494 
     30 C30         2.5624   -1.6220   -6.1937 C.ar      1 cry         0.1955 
     31 C31        -1.7380    3.4184   -3.2392 C.ar      1 cry         0.2200 
     32 C32        -8.4320    2.8029   -1.6533 C.2       1 cry         0.5000 
     33 C33        -6.1274    2.9471   -2.6233 C.2       1 cry         0.5000 
     34 C34        -7.5626    3.4264   -2.7105 C.3       1 cry         0.0000 
     35 N1          2.1763   -0.7216   -2.6434 N.ar      1 cry        -0.7311 
     36 N2         -8.4219    3.4528   -0.4699 N.am      1 cry        -0.3850 
     37 N3         -5.4278    3.0320   -3.7725 N.am      1 cry        -0.3850 
     38 N4         -1.0173   -5.2671   -7.4815 N.4       1 cry        -0.1000 
     39 O1         -9.1003    1.7960   -1.8897 O.2       1 cry        -0.5000 
     40 O2         -5.6318    2.4872   -1.5912 O.2       1 cry        -0.5000 
     41 O3         -3.7399   -6.0686   -7.3278 O.3       1 cry        -0.4000 
     42 O4          1.8766   -0.5181   -8.2188 O.3       1 cry        -0.3000 
     43 O5          3.1506   -2.6699   -6.8659 O.3       1 cry        -0.3000 
     44 O6          0.1215    2.4661   -4.4323 O.3       1 cry        -0.1850 
     45 F1        -11.6353    2.9903    4.0977 F         1 cry        -0.2200 
     46 F2         -0.8839    4.0867   -2.4281 F         1 cry        -0.2200 
     47 H1          1.0178    0.2152   -9.9400 H         1 cry         0.0300 
     48 H2         -0.0384    0.2453   -8.5334 H         1 cry         0.0300 
     49 H3          1.2871    1.4284   -8.6969 H         1 cry         0.0300 
     50 H4         -8.8236    5.2759    1.3681 H         1 cry         0.1150 
     51 H5         -9.8600    1.2010    0.3235 H         1 cry         0.1150 
     52 H6        -10.2361    5.1030    3.3938 H         1 cry         0.1150 
     53 H7        -11.2681    1.0580    2.3393 H         1 cry         0.1150 
     54 H8         -4.1948    1.5786   -5.6392 H         1 cry         0.1150 
     55 H9         -1.7470    1.3008   -5.9194 H         1 cry         0.1150 
     56 H10         0.4337    2.0593   -1.8003 H         1 cry         0.1970 
     57 H11         1.6951    0.1494   -0.8259 H         1 cry         0.0550 
     58 H12        -3.4993    4.2093   -2.2882 H         1 cry         0.1150 
     59 H13         0.7681    1.2755   -6.5007 H         1 cry         0.1528 
     60 H14         3.1344   -2.4895   -4.3176 H         1 cry         0.2022 
     61 H15        -8.6159    5.4049   -2.5702 H         1 cry         0.0600 
     62 H16        -6.9558    5.4900   -3.3383 H         1 cry         0.0600 
     63 H17        -7.6384    3.6743   -4.9638 H         1 cry         0.0600 
     64 H18        -9.2724    3.5602   -4.1555 H         1 cry         0.0600 
     65 H19        -0.6646   -7.3398   -7.7359 H         1 cry         0.0600 
     66 H20        -1.6726   -6.6126   -8.9780 H         1 cry         0.0600 
     67 H21        -2.3618   -4.1369   -8.6652 H         1 cry         0.0600 
     68 H22        -1.8179   -3.3175   -7.2130 H         1 cry         0.0600 
     69 H23        -3.0597   -8.0031   -7.4456 H         1 cry         0.0300 
     70 H24        -2.4885   -7.1114   -6.0481 H         1 cry         0.0300 
     71 H25        -4.2032   -4.0922   -7.0275 H         1 cry         0.0300 
     72 H26        -3.2125   -4.8020   -5.7772 H         1 cry         0.0300 
     73 H27         0.4365   -3.0950   -6.8403 H         1 cry         0.0600 
     74 H28         1.3069   -4.4981   -6.2809 H         1 cry         0.0600 
     75 H29         0.8588   -5.6953   -8.3651 H         1 cry         0.0600 
     76 H30         0.0338   -4.3236   -9.0626 H         1 cry         0.0600 
     77 H31         2.9531   -4.2332   -8.1440 H         1 cry         0.0300 
     78 H32         2.1425   -2.8091   -8.7004 H         1 cry         0.0300 
     79 H33        -7.8057    4.2519   -0.4163 H         1 cry         0.3000 
     80 H34        -5.9469    3.2396   -4.6121 H         1 cry         0.3000 
     81 H35        -0.8311   -5.3415   -6.4783 H         1 cry         0.2900 
@<TRIPOS>BOND
     1    1   42 1    
     2    1   47 1    
     3    1   48 1    
     4    1   49 1    
     5    2    4 ar   
     6    2   22 ar   
     7    2   50 1    
     8    3    5 ar   
     9    3   22 ar   
    10    3   51 1    
    11    4   23 ar   
    12    4   52 1    
    13    5   23 ar   
    14    5   53 1    
    15    6    7 ar   
    16    6   24 ar   
    17    6   54 1    
    18    7   25 ar   
    19    7   55 1    
    20    8    9 ar   
    21    8   26 ar   
    22    8   56 1    
    23    9   35 ar   
    24    9   57 1    
    25   10   24 ar   
    26   10   31 ar   
    27   10   58 1    
    28   11   27 ar   
    29   11   29 ar   
    30   11   59 1    
    31   12   28 ar   
    32   12   30 ar   
    33   12   60 1    
    34   13   14 1    
    35   13   34 1    
    36   13   61 1    
    37   13   62 1    
    38   14   34 1    
    39   14   63 1    
    40   14   64 1    
    41   15   17 1    
    42   15   38 1    
    43   15   65 1    
    44   15   66 1    
    45   16   18 1    
    46   16   38 1    
    47   16   67 1    
    48   16   68 1    
    49   17   41 1    
    50   17   69 1    
    51   17   70 1    
    52   18   41 1    
    53   18   71 1    
    54   18   72 1    
    55   19   20 1    
    56   19   21 1    
    57   19   73 1    
    58   19   74 1    
    59   20   38 1    
    60   20   75 1    
    61   20   76 1    
    62   21   43 1    
    63   21   77 1    
    64   21   78 1    
    65   22   36 1    
    66   23   45 1    
    67   24   37 1    
    68   25   31 ar   
    69   25   44 1    
    70   26   27 ar   
    71   26   44 1    
    72   27   28 ar   
    73   28   35 ar   
    74   29   30 ar   
    75   29   42 1    
    76   30   43 1    
    77   31   46 1    
    78   32   34 1    
    79   32   36 am   BACKBONE|DICT|INTERRES
    80   32   39 2    
    81   33   34 1    
    82   33   37 am   BACKBONE|DICT|INTERRES
    83   33   40 2    
    84   36   79 1    
    85   37   80 1    
    86   38   81 1    
@<TRIPOS>SUBSTRUCTURE
     1 cry         1 GROUP             0 A     ****    0 ROOT    
@<TRIPOS>MOLECULE
met-ligand
81   86    1
SMALL
USER_CHARGES


@<TRIPOS>ATOM
      1 C1          1.2421    0.7817   -9.0973 C.3       1 cry         0.1100 
      2 C2         -9.3738    4.5788    1.4561 C.ar      1 cry        -0.1150 
      3 C3         -9.8446    2.2259    1.0273 C.ar      1 cry        -0.1150 
      4 C4        -10.1443    4.5255    2.6333 C.ar      1 cry        -0.1150 
      5 C5        -10.6217    2.1760    2.2030 C.ar      1 cry        -0.1150 
      6 C6         -3.5142    2.1036   -4.9996 C.ar      1 cry        -0.1150 
      7 C7         -2.1271    1.9457   -5.1911 C.ar      1 cry        -0.1150 
      8 C8          0.8811    1.2177   -2.6289 C.ar      1 cry        -0.4849 
      9 C9          1.5779    0.0998   -2.1408 C.ar      1 cry         0.4305 
     10 C10        -3.0833    3.5478   -3.0820 C.ar      1 cry        -0.1150 
     11 C11         1.3314    0.5656   -6.2692 C.ar      1 cry        -0.1673 
     12 C12         2.6882   -1.5996   -5.1214 C.ar      1 cry        -0.4407 
     13 C13        -7.8350    4.8300   -3.2354 C.3       1 cry        -0.1200 
     14 C14        -8.2118    3.6515   -4.1031 C.3       1 cry        -0.1200 
     15 C15        -1.7665   -6.2404   -7.9185 C.3       1 cry        -0.0744 
     16 C16        -2.1247   -3.8656   -7.5024 C.3       1 cry        -0.0744 
     17 C17        -3.0186   -6.5298   -7.0726 C.3       1 cry         0.3644 
     18 C18        -3.3620   -4.2327   -6.6674 C.3       1 cry         0.3644 
     19 C19         1.0539   -3.7995   -7.3236 C.3       1 cry        -0.1200 
     20 C20         0.1232   -4.6549   -8.1943 C.3       1 cry         0.1500 
     21 C21         2.2718   -3.2560   -8.0925 C.3       1 cry         0.1400 
     22 C22        -9.2238    3.4379    0.6398 C.ar      1 cry         0.0850 
     23 C23       -10.7781    3.3255    2.9991 C.ar      1 cry         0.2200 
     24 C24        -3.9984    2.8870   -3.9319 C.ar      1 cry         0.0850 
     25 C25        -1.2139    2.5963   -4.3352 C.ar      1 cry         0.0850 
     26 C26         0.7758    1.3904   -4.0226 C.ar      1 cry         0.2811 
     27 C27         1.3898    0.4334   -4.8646 C.ar      1 cry        -0.1736 
     28 C28         2.0826   -0.6570   -4.2736 C.ar      1 cry         0.7341 
     29 C29         1.9380   -0.3948   -7.1136 C.ar      1 cry         0.0494 
     30 C30         2.6012   -1.4976   -6.5202 C.ar      1 cry         0.1955 
     31 C31        -1.6962    3.4119   -3.2926 C.ar      1 cry         0.2200 
     32 C32        -8.4079    2.8494   -1.6544 C.2       1 cry         0.5000 
     33 C33        -6.1120    2.9537   -2.6463 C.2       1 cry         0.5000 
     34 C34        -7.5507    3.4197   -2.7504 C.3       1 cry         0.0000 
     35 N1          2.1942   -0.7969   -2.9355 N.ar      1 cry        -0.7311 
     36 N2         -8.4234    3.5855   -0.5263 N.am      1 cry        -0.3850 
     37 N3         -5.3971    3.0638   -3.7836 N.am      1 cry        -0.3850 
     38 N4         -1.1356   -4.9726   -7.4807 N.4       1 cry        -0.1000 
     39 O1         -9.0459    1.8103   -1.8186 O.2       1 cry        -0.5000 
     40 O2         -5.6234    2.4849   -1.6166 O.2       1 cry        -0.5000 
     41 O3         -3.9268   -5.4394   -7.1683 O.3       1 cry        -0.4000 
     42 O4          1.9241   -0.3058   -8.4891 O.3       1 cry        -0.3000 
     43 O5          3.1586   -2.5183   -7.2538 O.3       1 cry        -0.3000 
     44 O6          0.1359    2.4850   -4.5487 O.3       1 cry        -0.1850 
     45 F1        -11.5386    3.2820    4.1180 F         1 cry        -0.2200 
     46 F2         -0.8260    4.0787   -2.4979 F         1 cry        -0.2200 
     47 H1          1.3213    0.6925  -10.1811 H         1 cry         0.0300 
     48 H2          0.1801    0.7802   -8.8423 H         1 cry         0.0300 
     49 H3          1.6828    1.7387   -8.8121 H         1 cry         0.0300 
     50 H4         -8.8891    5.5074    1.1886 H         1 cry         0.1150 
     51 H5         -9.7352    1.3241    0.4449 H         1 cry         0.1150 
     52 H6        -10.2511    5.4046    3.2491 H         1 cry         0.1150 
     53 H7        -11.0985    1.2522    2.4983 H         1 cry         0.1150 
     54 H8         -4.2030    1.6095   -5.6702 H         1 cry         0.1150 
     55 H9         -1.7631    1.3350   -6.0035 H         1 cry         0.1150 
     56 H10         0.4261    1.9201   -1.9475 H         1 cry         0.1970 
     57 H11         1.6719   -0.0607   -1.0816 H         1 cry         0.0550 
     58 H12        -3.4396    4.1817   -2.2815 H         1 cry         0.1150 
     59 H13         0.8099    1.4174   -6.6824 H         1 cry         0.1528 
     60 H14         3.1697   -2.4645   -4.6912 H         1 cry         0.2022 
     61 H15        -8.6397    5.3809   -2.7521 H         1 cry         0.0600 
     62 H16        -6.9873    5.4427   -3.5380 H         1 cry         0.0600 
     63 H17        -7.6412    3.4902   -5.0155 H         1 cry         0.0600 
     64 H18        -9.2695    3.4075   -4.1913 H         1 cry         0.0600 
     65 H19        -1.0582   -7.0624   -7.8132 H         1 cry         0.0600 
     66 H20        -2.0332   -6.1745   -8.9741 H         1 cry         0.0600 
     67 H21        -2.4216   -3.6575   -8.5319 H         1 cry         0.0600 
     68 H22        -1.6891   -2.9490   -7.1045 H         1 cry         0.0600 
     69 H23        -3.5163   -7.4293   -7.4364 H         1 cry         0.0300 
     70 H24        -2.7627   -6.7134   -6.0272 H         1 cry         0.0300 
     71 H25        -4.1088   -3.4431   -6.7376 H         1 cry         0.0300 
     72 H26        -3.1121   -4.3306   -5.6093 H         1 cry         0.0300 
     73 H27         0.4923   -2.9645   -6.9055 H         1 cry         0.0600 
     74 H28         1.3949   -4.3834   -6.4659 H         1 cry         0.0600 
     75 H29         0.6487   -5.5732   -8.4549 H         1 cry         0.0600 
     76 H30        -0.1041   -4.1484   -9.1335 H         1 cry         0.0600 
     77 H31         2.8372   -4.0951   -8.4999 H         1 cry         0.0300 
     78 H32         1.9592   -2.6688   -8.9547 H         1 cry         0.0300 
     79 H33        -7.8412    4.4110   -0.5366 H         1 cry         0.3000 
     80 H34        -5.9083    3.3088   -4.6229 H         1 cry         0.3000 
     81 H35        -0.8852   -5.1129   -6.5019 H         1 cry         0.2900 
@<TRIPOS>BOND
     1    1   42 1    
     2    1   47 1    
     3    1   48 1    
     4    1   49 1    
     5    2    4 ar   
     6    2   22 ar   
     7    2   50 1    
     8    3    5 ar   
     9    3   22 ar   
    10    3   51 1    
    11    4   23 ar   
    12    4   52 1    
    13    5   23 ar   
    14    5   53 1    
    15    6    7 ar   
    16    6   24 ar   
    17    6   54 1    
    18    7   25 ar   
    19    7   55 1    
    20    8    9 ar   
    21    8   26 ar   
    22    8   56 1    
    23    9   35 ar   
    24    9   57 1    
    25   10   24 ar   
    26   10   31 ar   
    27   10   58 1    
    28   11   27 ar   
    29   11   29 ar   
    30   11   59 1    
    31   12   28 ar   
    32   12   30 ar   
    33   12   60 1    
    34   13   14 1    
    35   13   34 1    
    36   13   61 1    
    37   13   62 1    
    38   14   34 1    
    39   14   63 1    
    40   14   64 1    
    41   15   17 1    
    42   15   38 1    
    43   15   65 1    
    44   15   66 1    
    45   16   18 1    
    46   16   38 1    
    47   16   67 1    
    48   16   68 1    
    49   17   41 1    
    50   17   69 1    
    51   17   70 1    
    52   18   41 1    
    53   18   71 1    
    54   18   72 1    
    55   19   20 1    
    56   19   21 1    
    57   19   73 1    
    58   19   74 1    
    59   20   38 1    
    60   20   75 1    
    61   20   76 1    
    62   21   43 1    
    63   21   77 1    
    64   21   78 1    
    65   22   36 1    
    66   23   45 1    
    67   24   37 1    
    68   25   31 ar   
    69   25   44 1    
    70   26   27 ar   
    71   26   44 1    
    72   27   28 ar   
    73   28   35 ar   
    74   29   30 ar   
    75   29   42 1    
    76   30   43 1    
    77   31   46 1    
    78   32   34 1    
    79   32   36 am   BACKBONE|DICT|INTERRES
    80   32   39 2    
    81   33   34 1    
    82   33   37 am   BACKBONE|DICT|INTERRES
    83   33   40 2    
    84   36   79 1    
    85   37   80 1    
    86   38   81 1    
@<TRIPOS>SUBSTRUCTURE
     1 cry         1 GROUP             0 A     ****    0 ROOT    
@<TRIPOS>MOLECULE
met-ligand
81   86    1
SMALL
USER_CHARGES


@<TRIPOS>ATOM
      1 C1          1.4262    0.4659   -9.0986 C.3       1 cry         0.1100 
      2 C2         -8.9458    2.8777    1.5780 C.ar      1 cry        -0.1150 
      3 C3        -10.3899    2.2461   -0.2778 C.ar      1 cry        -0.1150 
      4 C4         -9.9309    2.4544    2.4892 C.ar      1 cry        -0.1150 
      5 C5        -11.3733    1.8183    0.6361 C.ar      1 cry        -0.1150 
      6 C6         -3.1316    2.3762   -4.9419 C.ar      1 cry        -0.1150 
      7 C7         -1.7777    2.0328   -5.1291 C.ar      1 cry        -0.1150 
      8 C8          1.1520    0.9789   -2.6233 C.ar      1 cry        -0.4849 
      9 C9          1.7741   -0.1844   -2.1403 C.ar      1 cry         0.4305 
     10 C10        -2.5030    3.8269   -3.0820 C.ar      1 cry        -0.1150 
     11 C11         1.5557    0.3024   -6.2656 C.ar      1 cry        -0.1673 
     12 C12         2.7769   -1.9495   -5.1218 C.ar      1 cry        -0.4407 
     13 C13        -6.9753    5.5269   -2.3392 C.3       1 cry        -0.1200 
     14 C14        -7.3992    5.0128   -3.6929 C.3       1 cry        -0.1200 
     15 C15         0.1483   -7.1267   -7.0374 C.3       1 cry        -0.0744 
     16 C16        -1.2192   -5.2961   -7.8836 C.3       1 cry        -0.0744 
     17 C17        -1.1415   -7.7946   -6.5291 C.3       1 cry         0.3644 
     18 C18        -2.4652   -6.0307   -7.3569 C.3       1 cry         0.3644 
     19 C19         2.3282   -4.9176   -6.4707 C.3       1 cry        -0.1200 
     20 C20         1.1888   -4.9112   -7.5104 C.3       1 cry         0.1500 
     21 C21         3.5450   -4.0875   -6.9234 C.3       1 cry         0.1400 
     22 C22        -9.1600    2.7784    0.1867 C.ar      1 cry         0.0850 
     23 C23       -11.1468    1.9269    2.0211 C.ar      1 cry         0.2200 
     24 C24        -3.4978    3.2644   -3.9111 C.ar      1 cry         0.0850 
     25 C25        -0.7820    2.5975   -4.3034 C.ar      1 cry         0.0850 
     26 C26         1.0671    1.1648   -4.0166 C.ar      1 cry         0.2811 
     27 C27         1.6096    0.1687   -4.8620 C.ar      1 cry        -0.1736 
     28 C28         2.2255   -0.9683   -4.2764 C.ar      1 cry         0.7341 
     29 C29         2.0951   -0.7015   -7.1056 C.ar      1 cry         0.0494 
     30 C30         2.7004   -1.8389   -6.5289 C.ar      1 cry         0.1955 
     31 C31        -1.1472    3.5048   -3.2856 C.ar      1 cry         0.2200 
     32 C32        -7.9998    3.1539   -2.0045 C.2       1 cry         0.5000 
     33 C33        -5.6169    3.3254   -2.6937 C.2       1 cry         0.5000 
     34 C34        -6.9499    4.0358   -2.6145 C.3       1 cry         0.0000 
     35 N1          2.3346   -1.1140   -2.9373 N.ar      1 cry        -0.7311 
     36 N2         -8.1394    3.2874   -0.6687 N.am      1 cry        -0.3850 
     37 N3         -4.8508    3.6451   -3.7512 N.am      1 cry        -0.3850 
     38 N4         -0.0242   -5.6538   -7.0816 N.4       1 cry        -0.1000 
     39 O1         -8.6519    2.3740   -2.6983 O.2       1 cry        -0.5000 
     40 O2         -5.2474    2.4870   -1.8759 O.2       1 cry        -0.5000 
     41 O3         -2.2283   -7.4329   -7.3732 O.3       1 cry        -0.4000 
     42 O4          2.0570   -0.6468   -8.4832 O.3       1 cry        -0.3000 
     43 O5          3.1908   -2.7910   -7.3989 O.3       1 cry        -0.3000 
     44 O6          0.5414    2.3212   -4.5360 O.3       1 cry        -0.1850 
     45 F1        -12.0981    1.5348    2.9027 F         1 cry        -0.2200 
     46 F2         -0.1939    4.0843   -2.5154 F         1 cry        -0.2200 
     47 H1          1.4717    0.3529  -10.1811 H         1 cry         0.0300 
     48 H2          0.3743    0.5315   -8.8192 H         1 cry         0.0300 
     49 H3          1.9295    1.3999   -8.8462 H         1 cry         0.0300 
     50 H4         -8.0228    3.2875    1.9572 H         1 cry         0.1150 
     51 H5        -10.6146    2.1739   -1.3300 H         1 cry         0.1150 
     52 H6         -9.7607    2.5425    3.5507 H         1 cry         0.1150 
     53 H7        -12.3095    1.4194    0.2746 H         1 cry         0.1150 
     54 H8         -3.8856    1.9490   -5.5870 H         1 cry         0.1150 
     55 H9         -1.5003    1.3490   -5.9173 H         1 cry         0.1150 
     56 H10         0.7476    1.7096   -1.9373 H         1 cry         0.1970 
     57 H11         1.8578   -0.3562   -1.0818 H         1 cry         0.0550 
     58 H12        -2.7766    4.5225   -2.3012 H         1 cry         0.1150 
     59 H13         1.0840    1.1787   -6.6826 H         1 cry         0.1528 
     60 H14         3.2130   -2.8165   -4.6562 H         1 cry         0.2022 
     61 H15        -7.7509    5.9139   -1.6805 H         1 cry         0.0600 
     62 H16        -6.0241    6.0499   -2.2814 H         1 cry         0.0600 
     63 H17        -6.7462    5.2270   -4.5357 H         1 cry         0.0600 
     64 H18        -8.4614    5.0396   -3.9333 H         1 cry         0.0600 
     65 H19         0.9695   -7.3938   -6.3724 H         1 cry         0.0600 
     66 H20         0.3999   -7.5022   -8.0313 H         1 cry         0.0600 
     67 H21        -1.0485   -5.5521   -8.9312 H         1 cry         0.0600 
     68 H22        -1.3884   -4.2198   -7.8360 H         1 cry         0.0600 
     69 H23        -1.0313   -8.8787   -6.5453 H         1 cry         0.0300 
     70 H24        -1.3532   -7.5133   -5.4954 H         1 cry         0.0300 
     71 H25        -3.3219   -5.8141   -7.9959 H         1 cry         0.0300 
     72 H26        -2.7311   -5.7001   -6.3512 H         1 cry         0.0300 
     73 H27         1.9759   -4.5522   -5.5084 H         1 cry         0.0600 
     74 H28         2.6670   -5.9358   -6.2893 H         1 cry         0.0600 
     75 H29         1.5402   -5.2991   -8.4662 H         1 cry         0.0600 
     76 H30         0.9006   -3.8758   -7.6905 H         1 cry         0.0600 
     77 H31         4.3048   -4.0302   -6.1432 H         1 cry         0.0300 
     78 H32         4.0233   -4.6007   -7.7572 H         1 cry         0.0300 
     79 H33        -7.4543    3.8735   -0.2066 H         1 cry         0.3000 
     80 H34        -5.2496    4.2367   -4.4634 H         1 cry         0.3000 
     81 H35        -0.2585   -5.3726   -6.1226 H         1 cry         0.2900 
@<TRIPOS>BOND
     1    1   42 1    
     2    1   47 1    
     3    1   48 1    
     4    1   49 1    
     5    2    4 ar   
     6    2   22 ar   
     7    2   50 1    
     8    3    5 ar   
     9    3   22 ar   
    10    3   51 1    
    11    4   23 ar   
    12    4   52 1    
    13    5   23 ar   
    14    5   53 1    
    15    6    7 ar   
    16    6   24 ar   
    17    6   54 1    
    18    7   25 ar   
    19    7   55 1    
    20    8    9 ar   
    21    8   26 ar   
    22    8   56 1    
    23    9   35 ar   
    24    9   57 1    
    25   10   24 ar   
    26   10   31 ar   
    27   10   58 1    
    28   11   27 ar   
    29   11   29 ar   
    30   11   59 1    
    31   12   28 ar   
    32   12   30 ar   
    33   12   60 1    
    34   13   14 1    
    35   13   34 1    
    36   13   61 1    
    37   13   62 1    
    38   14   34 1    
    39   14   63 1    
    40   14   64 1    
    41   15   17 1    
    42   15   38 1    
    43   15   65 1    
    44   15   66 1    
    45   16   18 1    
    46   16   38 1    
    47   16   67 1    
    48   16   68 1    
    49   17   41 1    
    50   17   69 1    
    51   17   70 1    
    52   18   41 1    
    53   18   71 1    
    54   18   72 1    
    55   19   20 1    
    56   19   21 1    
    57   19   73 1    
    58   19   74 1    
    59   20   38 1    
    60   20   75 1    
    61   20   76 1    
    62   21   43 1    
    63   21   77 1    
    64   21   78 1    
    65   22   36 1    
    66   23   45 1    
    67   24   37 1    
    68   25   31 ar   
    69   25   44 1    
    70   26   27 ar   
    71   26   44 1    
    72   27   28 ar   
    73   28   35 ar   
    74   29   30 ar   
    75   29   42 1    
    76   30   43 1    
    77   31   46 1    
    78   32   34 1    
    79   32   36 am   BACKBONE|DICT|INTERRES
    80   32   39 2    
    81   33   34 1    
    82   33   37 am   BACKBONE|DICT|INTERRES
    83   33   40 2    
    84   36   79 1    
    85   37   80 1    
    86   38   81 1    
@<TRIPOS>SUBSTRUCTURE
     1 cry         1 GROUP             0 A     ****    0 ROOT    
