@<TRIPOS>MOLECULE
met-ligand
81   86    1
SMALL
USER_CHARGES


@<TRIPOS>ATOM
      1 C1        -11.4742    7.0066   33.2542 C.3       1 <0>         0.1100 
      2 C2         -3.1177    3.5888   30.8254 C.ar      1 <0>        -0.1150 
      3 C3         -3.2286    5.9913   30.4425 C.ar      1 <0>        -0.1150 
      4 C4         -1.7160    3.6751   30.9471 C.ar      1 <0>        -0.1150 
      5 C5         -1.8257    6.0720   30.5394 C.ar      1 <0>        -0.1150 
      6 C6        -10.9672    2.7854   33.3224 C.ar      1 <0>        -0.1150 
      7 C7        -11.8054    2.8362   34.4527 C.ar      1 <0>        -0.1150 
      8 C8        -11.8990    4.0081   39.0193 C.ar      1 <0>        -0.4849 
      9 C9        -11.6311    5.0090   39.9640 C.ar      1 <0>         0.4305 
     10 C10        -9.0443    3.2659   34.7390 C.ar      1 <0>        -0.1150 
     11 C11       -11.7770    6.1616   35.9546 C.ar      1 <0>        -0.1673 
     12 C12       -11.1711    7.9853   37.9815 C.ar      1 <0>        -0.4407 
     13 C13        -8.6080    3.8549   29.4190 C.3       1 <0>        -0.1200 
     14 C14        -8.1215    5.2717   29.6087 C.3       1 <0>        -0.1200 
     15 C15       -11.3179   11.6617   40.3558 C.3       1 <0>        -0.0744 
     16 C16        -9.3062   12.6857   41.3155 C.3       1 <0>        -0.0744 
     17 C17       -11.9382   11.7267   41.7659 C.3       1 <0>         0.3644 
     18 C18        -9.9791   12.5991   42.6911 C.3       1 <0>         0.3644 
     19 C19        -9.3731   10.7182   38.0017 C.3       1 <0>        -0.1200 
     20 C20        -9.2174   11.8777   39.0133 C.3       1 <0>         0.1500 
     21 C21       -10.6933   10.7278   37.1999 C.3       1 <0>         0.1400 
     22 C22        -3.8882    4.7540   30.5816 C.ar      1 <0>         0.0850 
     23 C23        -1.0702    4.9171   30.8167 C.ar      1 <0>         0.2200 
     24 C24        -9.5925    3.0561   33.4602 C.ar      1 <0>         0.0850 
     25 C25       -11.2727    3.1314   35.7252 C.ar      1 <0>         0.0850 
     26 C26       -11.9375    4.3534   37.6555 C.ar      1 <0>         0.2811 
     27 C27       -11.7278    5.7154   37.2955 C.ar      1 <0>        -0.1736 
     28 C28       -11.4389    6.6465   38.3270 C.ar      1 <0>         0.7341 
     29 C29       -11.4388    7.4932   35.6114 C.ar      1 <0>         0.0494 
     30 C30       -11.1222    8.4133   36.6337 C.ar      1 <0>         0.1955 
     31 C31        -9.8722    3.2789   35.8764 C.ar      1 <0>         0.2200 
     32 C32        -6.1892    3.7602   30.4264 C.2       1 <0>         0.5000 
     33 C33        -8.0777    4.2091   31.9409 C.2       1 <0>         0.5000 
     34 C34        -7.6204    4.1869   30.5228 C.3       1 <0>         0.0000 
     35 N1        -11.4059    6.2920   39.6291 N.ar      1 <0>        -0.7311 
     36 N2         -5.3100    4.7766   30.5333 N.am      1 <0>        -0.3850 
     37 N3         -8.7905    3.1289   32.3012 N.am      1 <0>        -0.3850 
     38 N4         -9.8286   11.6721   40.3616 N.4       1 <0>        -0.1000 
     39 O1         -5.8815    2.5842   30.2382 O.2       1 <0>        -0.5000 
     40 O2         -7.8399    5.1640   32.6849 O.2       1 <0>        -0.5000 
     41 O3        -11.3727   12.7896   42.5158 O.3       1 <0>        -0.4000 
     42 O4        -11.3841    7.9533   34.3113 O.3       1 <0>        -0.3000 
     43 O5        -10.7587    9.6859   36.2358 O.3       1 <0>        -0.3000 
     44 O6        -12.1612    3.3336   36.7570 O.3       1 <0>        -0.1850 
     45 F1          0.2754    5.0027   30.9445 F         1 <0>        -0.2200 
     46 F2         -9.3244    3.4929   37.0968 F         1 <0>        -0.2200 
     47 H1        -11.3310    7.5143   32.3006 H         1 <0>         0.0300 
     48 H2        -10.7029    6.2374   33.3381 H         1 <0>         0.0300 
     49 H3        -12.4565    6.5348   33.2245 H         1 <0>         0.0300 
     50 H4         -3.5805    2.6231   30.9546 H         1 <0>         0.1150 
     51 H5         -3.8018    6.8876   30.2632 H         1 <0>         0.1150 
     52 H6         -1.1381    2.7878   31.1493 H         1 <0>         0.1150 
     53 H7         -1.3266    7.0227   30.4269 H         1 <0>         0.1150 
     54 H8        -11.3944    2.6013   32.3473 H         1 <0>         0.1150 
     55 H9        -12.8712    2.6999   34.3353 H         1 <0>         0.1150 
     56 H10       -12.0547    2.9863   39.3332 H         1 <0>         0.1970 
     57 H11       -11.5871    4.7706   41.0174 H         1 <0>         0.0550 
     58 H12        -7.9903    3.4641   34.8308 H         1 <0>         0.1150 
     59 H13       -12.0491    5.4688   35.1793 H         1 <0>         0.1528 
     60 H14       -10.9604    8.6584   38.7949 H         1 <0>         0.2022 
     61 H15        -8.2427    3.3010   28.5587 H         1 <0>         0.0600 
     62 H16        -9.6414    3.6465   29.6874 H         1 <0>         0.0600 
     63 H17        -8.8119    6.0034   30.0257 H         1 <0>         0.0600 
     64 H18        -7.4458    5.6572   28.8545 H         1 <0>         0.0600 
     65 H19       -11.6692   10.7403   39.8982 H         1 <0>         0.0600 
     66 H20       -11.6906   12.4986   39.7632 H         1 <0>         0.0600 
     67 H21        -9.4521   13.6865   40.9064 H         1 <0>         0.0600 
     68 H22        -8.2373   12.5440   41.4418 H         1 <0>         0.0600 
     69 H23       -13.0116   11.8952   41.6794 H         1 <0>         0.0300 
     70 H24       -11.8337   10.7898   42.3065 H         1 <0>         0.0300 
     71 H25        -9.5930   13.3854   43.3401 H         1 <0>         0.0300 
     72 H26        -9.7682   11.6550   43.1904 H         1 <0>         0.0300 
     73 H27        -8.5681   10.8129   37.2718 H         1 <0>         0.0600 
     74 H28        -9.1793    9.7616   38.4775 H         1 <0>         0.0600 
     75 H29        -9.5706   12.8124   38.5762 H         1 <0>         0.0600 
     76 H30        -8.1453   12.0064   39.1666 H         1 <0>         0.0600 
     77 H31       -11.5875   10.6962   37.8125 H         1 <0>         0.0300 
     78 H32       -10.7559   11.6683   36.6526 H         1 <0>         0.0300 
     79 H33        -5.7277    5.6963   30.5649 H         1 <0>         0.3000 
     80 H34        -8.9736    2.4478   31.5796 H         1 <0>         0.3000 
     81 H35        -9.5115   10.7553   40.6941 H         1 <0>         0.2900 
@<TRIPOS>BOND
     1    1   42 1    
     2    1   47 1    
     3    1   48 1    
     4    1   49 1    
     5    2    4 ar   
     6    2   22 ar   
     7    2   50 1    
     8    3    5 ar   
     9    3   22 ar   
    10    3   51 1    
    11    4   23 ar   
    12    4   52 1    
    13    5   23 ar   
    14    5   53 1    
    15    6    7 ar   
    16    6   24 ar   
    17    6   54 1    
    18    7   25 ar   
    19    7   55 1    
    20    8    9 ar   
    21    8   26 ar   
    22    8   56 1    
    23    9   35 ar   
    24    9   57 1    
    25   10   24 ar   
    26   10   31 ar   
    27   10   58 1    
    28   11   27 ar   
    29   11   29 ar   
    30   11   59 1    
    31   12   28 ar   
    32   12   30 ar   
    33   12   60 1    
    34   13   14 1    
    35   13   34 1    
    36   13   61 1    
    37   13   62 1    
    38   14   34 1    
    39   14   63 1    
    40   14   64 1    
    41   15   17 1    
    42   15   38 1    
    43   15   65 1    
    44   15   66 1    
    45   16   18 1    
    46   16   38 1    
    47   16   67 1    
    48   16   68 1    
    49   17   41 1    
    50   17   69 1    
    51   17   70 1    
    52   18   41 1    
    53   18   71 1    
    54   18   72 1    
    55   19   20 1    
    56   19   21 1    
    57   19   73 1    
    58   19   74 1    
    59   20   38 1    
    60   20   75 1    
    61   20   76 1    
    62   21   43 1    
    63   21   77 1    
    64   21   78 1    
    65   22   36 1    
    66   23   45 1    
    67   24   37 1    
    68   25   31 ar   
    69   25   44 1    
    70   26   27 ar   
    71   26   44 1    
    72   27   28 ar   
    73   28   35 ar   
    74   29   30 ar   
    75   29   42 1    
    76   30   43 1    
    77   31   46 1    
    78   32   34 1    
    79   32   36 am   BACKBONE|DICT|INTERRES
    80   32   39 2    
    81   33   34 1    
    82   33   37 am   BACKBONE|DICT|INTERRES
    83   33   40 2    
    84   36   79 1    
    85   37   80 1    
    86   38   81 1    
@<TRIPOS>SUBSTRUCTURE
     1 <0>         1 GROUP             0       ****    0 ROOT    
@<TRIPOS>MOLECULE
met-ligand
81   86    1
SMALL
USER_CHARGES


@<TRIPOS>ATOM
      1 C1        -13.2770    4.7602   36.2829 C.3       1 <0>         0.1100 
      2 C2         -3.3881    6.2742   30.4462 C.ar      1 <0>        -0.1150 
      3 C3         -3.0571    3.8916   30.8254 C.ar      1 <0>        -0.1150 
      4 C4         -1.9934    6.4693   30.4255 C.ar      1 <0>        -0.1150 
      5 C5         -1.6613    4.0897   30.8265 C.ar      1 <0>        -0.1150 
      6 C6         -8.8396    2.8986   34.8144 C.ar      1 <0>        -0.1150 
      7 C7         -9.4370    2.3254   35.9511 C.ar      1 <0>        -0.1150 
      8 C8         -9.7574    0.0787   39.0678 C.ar      1 <0>        -0.4849 
      9 C9         -9.4513    0.5487   40.3583 C.ar      1 <0>         0.4305 
     10 C10        -9.4029    0.9103   33.5303 C.ar      1 <0>        -0.1150 
     11 C11       -11.8518    2.9464   37.9353 C.ar      1 <0>        -0.1673 
     12 C12       -11.0299    3.8041   40.4722 C.ar      1 <0>        -0.4407 
     13 C13        -8.5961    3.7330   29.4999 C.3       1 <0>        -0.1200 
     14 C14        -8.2401    5.1797   29.7411 C.3       1 <0>        -0.1200 
     15 C15       -10.9632   10.9504   39.4369 C.3       1 <0>        -0.0744 
     16 C16        -9.2514   10.5860   37.7400 C.3       1 <0>        -0.0744 
     17 C17        -9.9688   11.8456   40.1968 C.3       1 <0>         0.3644 
     18 C18        -8.3228   11.4962   38.5516 C.3       1 <0>         0.3644 
     19 C19       -11.9430    8.0433   38.7607 C.3       1 <0>        -0.1200 
     20 C20       -11.1380    9.0182   37.8798 C.3       1 <0>         0.1500 
     21 C21       -11.0946    6.9010   39.3305 C.3       1 <0>         0.1400 
     22 C22        -3.9322    4.9872   30.6248 C.ar      1 <0>         0.0850 
     23 C23        -1.1295    5.3778   30.6306 C.ar      1 <0>         0.2200 
     24 C24        -8.8246    2.1959   33.5881 C.ar      1 <0>         0.0850 
     25 C25       -10.0691    1.0568   35.8824 C.ar      1 <0>         0.0850 
     26 C26       -10.5308    0.8939   38.2224 C.ar      1 <0>         0.2811 
     27 C27       -11.0292    2.1172   38.7297 C.ar      1 <0>        -0.1736 
     28 C28       -10.6388    2.5237   40.0331 C.ar      1 <0>         0.7341 
     29 C29       -12.1942    4.2473   38.3656 C.ar      1 <0>         0.0494 
     30 C30       -11.7383    4.6803   39.6296 C.ar      1 <0>         0.1955 
     31 C31       -10.0318    0.3524   34.6608 C.ar      1 <0>         0.2200 
     32 C32        -6.1389    3.8201   30.4295 C.2       1 <0>         0.5000 
     33 C33        -8.0090    3.9721   32.0213 C.2       1 <0>         0.5000 
     34 C34        -7.6013    4.1041   30.5880 C.3       1 <0>         0.0000 
     35 N1         -9.8706    1.7421   40.8243 N.ar      1 <0>        -0.7311 
     36 N2         -5.3501    4.8897   30.6442 N.am      1 <0>        -0.3850 
     37 N3         -8.2433    2.6988   32.3931 N.am      1 <0>        -0.3850 
     38 N4        -10.2400    9.9334   38.6307 N.4       1 <0>        -0.1000 
     39 O1         -5.7292    2.7021   30.1204 O.2       1 <0>        -0.5000 
     40 O2         -8.1199    4.9592   32.7521 O.2       1 <0>        -0.5000 
     41 O3         -9.0850   12.4604   39.2670 O.3       1 <0>        -0.4000 
     42 O4        -12.9255    5.1348   37.6060 O.3       1 <0>        -0.3000 
     43 O5        -11.9232    5.9772   40.0324 O.3       1 <0>        -0.3000 
     44 O6        -10.7702    0.4894   36.9306 O.3       1 <0>        -0.1850 
     45 F1          0.2106    5.5672   30.6353 F         1 <0>        -0.2200 
     46 F2        -10.6186   -0.8652   34.5630 F         1 <0>        -0.2200 
     47 H1        -13.8125    5.5808   35.8070 H         1 <0>         0.0300 
     48 H2        -12.3915    4.5518   35.6807 H         1 <0>         0.0300 
     49 H3        -13.9344    3.8900   36.2760 H         1 <0>         0.0300 
     50 H4         -4.0490    7.1174   30.3164 H         1 <0>         0.1150 
     51 H5         -3.4366    2.8949   30.9953 H         1 <0>         0.1150 
     52 H6         -1.5823    7.4573   30.2781 H         1 <0>         0.1150 
     53 H7         -0.9978    3.2513   30.9815 H         1 <0>         0.1150 
     54 H8         -8.3781    3.8709   34.9151 H         1 <0>         0.1150 
     55 H9         -9.4048    2.8931   36.8678 H         1 <0>         0.1150 
     56 H10        -9.3726   -0.8683   38.7197 H         1 <0>         0.1970 
     57 H11        -8.8408   -0.0425   41.0239 H         1 <0>         0.0550 
     58 H12        -9.3917    0.3503   32.6060 H         1 <0>         0.1150 
     59 H13       -12.1586    2.5913   36.9645 H         1 <0>         0.1528 
     60 H14       -10.7082    4.1481   41.4440 H         1 <0>         0.2022 
     61 H15        -8.2377    3.2771   28.5798 H         1 <0>         0.0600 
     62 H16        -9.5837    3.3998   29.8112 H         1 <0>         0.0600 
     63 H17        -8.9918    5.8168   30.2020 H         1 <0>         0.0600 
     64 H18        -7.6191    5.6719   28.9998 H         1 <0>         0.0600 
     65 H19       -11.6150   10.4737   40.1677 H         1 <0>         0.0600 
     66 H20       -11.5938   11.5584   38.7867 H         1 <0>         0.0600 
     67 H21        -9.7662   11.1628   36.9696 H         1 <0>         0.0600 
     68 H22        -8.6440    9.8338   37.2343 H         1 <0>         0.0600 
     69 H23       -10.5076   12.6248   40.7368 H         1 <0>         0.0300 
     70 H24        -9.4123   11.2773   40.9416 H         1 <0>         0.0300 
     71 H25        -7.6196   12.0082   37.8941 H         1 <0>         0.0300 
     72 H26        -7.7420   10.8895   39.2393 H         1 <0>         0.0300 
     73 H27       -12.4704    8.5558   39.5632 H         1 <0>         0.0600 
     74 H28       -12.7247    7.6098   38.1381 H         1 <0>         0.0600 
     75 H29       -11.8263    9.6157   37.2803 H         1 <0>         0.0600 
     76 H30       -10.5507    8.4353   37.1678 H         1 <0>         0.0600 
     77 H31       -10.5263    6.4279   38.5268 H         1 <0>         0.0300 
     78 H32       -10.3560    7.2862   40.0257 H         1 <0>         0.0300 
     79 H33        -5.8413    5.7652   30.7580 H         1 <0>         0.3000 
     80 H34        -8.1022    2.0121   31.6665 H         1 <0>         0.3000 
     81 H35        -9.6984    9.3955   39.3132 H         1 <0>         0.2900 
@<TRIPOS>BOND
     1    1   42 1    
     2    1   47 1    
     3    1   48 1    
     4    1   49 1    
     5    2    4 ar   
     6    2   22 ar   
     7    2   50 1    
     8    3    5 ar   
     9    3   22 ar   
    10    3   51 1    
    11    4   23 ar   
    12    4   52 1    
    13    5   23 ar   
    14    5   53 1    
    15    6    7 ar   
    16    6   24 ar   
    17    6   54 1    
    18    7   25 ar   
    19    7   55 1    
    20    8    9 ar   
    21    8   26 ar   
    22    8   56 1    
    23    9   35 ar   
    24    9   57 1    
    25   10   24 ar   
    26   10   31 ar   
    27   10   58 1    
    28   11   27 ar   
    29   11   29 ar   
    30   11   59 1    
    31   12   28 ar   
    32   12   30 ar   
    33   12   60 1    
    34   13   14 1    
    35   13   34 1    
    36   13   61 1    
    37   13   62 1    
    38   14   34 1    
    39   14   63 1    
    40   14   64 1    
    41   15   17 1    
    42   15   38 1    
    43   15   65 1    
    44   15   66 1    
    45   16   18 1    
    46   16   38 1    
    47   16   67 1    
    48   16   68 1    
    49   17   41 1    
    50   17   69 1    
    51   17   70 1    
    52   18   41 1    
    53   18   71 1    
    54   18   72 1    
    55   19   20 1    
    56   19   21 1    
    57   19   73 1    
    58   19   74 1    
    59   20   38 1    
    60   20   75 1    
    61   20   76 1    
    62   21   43 1    
    63   21   77 1    
    64   21   78 1    
    65   22   36 1    
    66   23   45 1    
    67   24   37 1    
    68   25   31 ar   
    69   25   44 1    
    70   26   27 ar   
    71   26   44 1    
    72   27   28 ar   
    73   28   35 ar   
    74   29   30 ar   
    75   29   42 1    
    76   30   43 1    
    77   31   46 1    
    78   32   34 1    
    79   32   36 am   BACKBONE|DICT|INTERRES
    80   32   39 2    
    81   33   34 1    
    82   33   37 am   BACKBONE|DICT|INTERRES
    83   33   40 2    
    84   36   79 1    
    85   37   80 1    
    86   38   81 1    
@<TRIPOS>SUBSTRUCTURE
     1 <0>         1 GROUP             0       ****    0 ROOT    
@<TRIPOS>MOLECULE
met-ligand
81   86    1
SMALL
USER_CHARGES


@<TRIPOS>ATOM
      1 C1        -14.1974    4.5560   36.0898 C.3       1 <0>         0.1100 
      2 C2         -3.4164    6.2617   30.4257 C.ar      1 <0>        -0.1150 
      3 C3         -3.0457    3.8855   30.8180 C.ar      1 <0>        -0.1150 
      4 C4         -2.0252    6.4793   30.4244 C.ar      1 <0>        -0.1150 
      5 C5         -1.6540    4.1074   30.8328 C.ar      1 <0>        -0.1150 
      6 C6         -9.0381    3.3169   34.8844 C.ar      1 <0>        -0.1150 
      7 C7         -9.6824    2.8685   36.0526 C.ar      1 <0>        -0.1150 
      8 C8         -9.8396    1.0919   39.4557 C.ar      1 <0>        -0.4849 
      9 C9         -9.8161    1.6739   40.7342 C.ar      1 <0>         0.4305 
     10 C10        -9.0372    1.0519   34.0108 C.ar      1 <0>        -0.1150 
     11 C11       -12.4410    3.2893   37.9289 C.ar      1 <0>        -0.1673 
     12 C12       -12.1816    4.3866   40.4921 C.ar      1 <0>        -0.4407 
     13 C13        -8.5976    3.4079   29.6389 C.3       1 <0>        -0.1200 
     14 C14        -8.3092    4.8888   29.6350 C.3       1 <0>        -0.1200 
     15 C15       -11.2202   10.8159   39.8092 C.3       1 <0>        -0.0744 
     16 C16       -10.5688    9.5418   37.8273 C.3       1 <0>        -0.0744 
     17 C17        -9.9407   11.6577   39.6441 C.3       1 <0>         0.3644 
     18 C18        -9.3040   10.4069   37.7514 C.3       1 <0>         0.3644 
     19 C19       -12.1249    7.7092   40.6209 C.3       1 <0>        -0.1200 
     20 C20       -12.2509    8.6063   39.3836 C.3       1 <0>         0.1500 
     21 C21       -13.4294    6.9543   40.9342 C.3       1 <0>         0.1400 
     22 C22        -3.9377    4.9664   30.6021 C.ar      1 <0>         0.0850 
     23 C23        -1.1425    5.4033   30.6380 C.ar      1 <0>         0.2200 
     24 C24        -8.7261    2.4166   33.8402 C.ar      1 <0>         0.0850 
     25 C25       -10.0452    1.5096   36.1953 C.ar      1 <0>         0.0850 
     26 C26       -10.7121    1.6245   38.4887 C.ar      1 <0>         0.2811 
     27 C27       -11.5312    2.7231   38.8477 C.ar      1 <0>        -0.1736 
     28 C28       -11.4118    3.2603   40.1540 C.ar      1 <0>         0.7341 
     29 C29       -13.2054    4.4303   38.2769 C.ar      1 <0>         0.0494 
     30 C30       -13.0642    4.9897   39.5657 C.ar      1 <0>         0.1955 
     31 C31        -9.6969    0.6044   35.1728 C.ar      1 <0>         0.2200 
     32 C32        -6.1193    3.7515   30.4260 C.2       1 <0>         0.5000 
     33 C33        -7.9413    4.0221   32.0688 C.2       1 <0>         0.5000 
     34 C34        -7.5869    3.9894   30.6129 C.3       1 <0>         0.0000 
     35 N1        -10.5790    2.7306   41.0733 N.ar      1 <0>        -0.7311 
     36 N2         -5.3545    4.8451   30.6128 N.am      1 <0>        -0.3850 
     37 N3         -8.1409    2.7963   32.5991 N.am      1 <0>        -0.3850 
     38 N4        -11.0506    9.4618   39.2243 N.4       1 <0>        -0.1000 
     39 O1         -5.6834    2.6453   30.1104 O.2       1 <0>        -0.5000 
     40 O2         -8.0271    5.0868   32.6829 O.2       1 <0>        -0.5000 
     41 O3         -9.5793   11.7042   38.2679 O.3       1 <0>        -0.4000 
     42 O4        -14.0832    5.0563   37.4156 O.3       1 <0>        -0.3000 
     43 O5        -13.8149    6.1128   39.8498 O.3       1 <0>        -0.3000 
     44 O6        -10.7924    1.0336   37.2511 O.3       1 <0>        -0.1850 
     45 F1          0.1936    5.6192   30.6528 F         1 <0>        -0.2200 
     46 F2        -10.0244   -0.7043   35.2907 F         1 <0>        -0.2200 
     47 H1        -14.9062    5.1667   35.5315 H         1 <0>         0.0300 
     48 H2        -13.2429    4.6000   35.5651 H         1 <0>         0.0300 
     49 H3        -14.5668    3.5286   36.0793 H         1 <0>         0.0300 
     50 H4         -4.0922    7.0924   30.2843 H         1 <0>         0.1150 
     51 H5         -3.4106    2.8847   30.9879 H         1 <0>         0.1150 
     52 H6         -1.6335    7.4757   30.2774 H         1 <0>         0.1150 
     53 H7         -0.9799    3.2809   30.9992 H         1 <0>         0.1150 
     54 H8         -8.8029    4.3671   34.8238 H         1 <0>         0.1150 
     55 H9         -9.9127    3.5942   36.8176 H         1 <0>         0.1150 
     56 H10        -9.1952    0.2587   39.2182 H         1 <0>         0.1970 
     57 H11        -9.1597    1.2931   41.5029 H         1 <0>         0.0550 
     58 H12        -8.7978    0.3385   33.2354 H         1 <0>         0.1150 
     59 H13       -12.5244    2.8457   36.9491 H         1 <0>         0.1528 
     60 H14       -12.0678    4.7777   41.4889 H         1 <0>         0.2022 
     61 H15        -8.2343    2.8159   28.8035 H         1 <0>         0.0600 
     62 H16        -9.5517    3.0787   30.0468 H         1 <0>         0.0600 
     63 H17        -9.0699    5.5620   30.0266 H         1 <0>         0.0600 
     64 H18        -7.7151    5.2953   28.8254 H         1 <0>         0.0600 
     65 H19       -11.4690   10.7283   40.8673 H         1 <0>         0.0600 
     66 H20       -12.0541   11.3227   39.3231 H         1 <0>         0.0600 
     67 H21       -11.3477    9.9596   37.1866 H         1 <0>         0.0600 
     68 H22       -10.3455    8.5403   37.4586 H         1 <0>         0.0600 
     69 H23       -10.1237   12.6765   39.9898 H         1 <0>         0.0300 
     70 H24        -9.1179   11.2721   40.2464 H         1 <0>         0.0300 
     71 H25        -8.9966   10.5058   36.7109 H         1 <0>         0.0300 
     72 H26        -8.4813    9.9438   38.2982 H         1 <0>         0.0300 
     73 H27       -11.3081    7.0058   40.4538 H         1 <0>         0.0600 
     74 H28       -11.8397    8.3061   41.4881 H         1 <0>         0.0600 
     75 H29       -13.1515    9.2216   39.4366 H         1 <0>         0.0600 
     76 H30       -12.3801    7.9657   38.5090 H         1 <0>         0.0600 
     77 H31       -13.3651    6.4044   41.8725 H         1 <0>         0.0300 
     78 H32       -14.2305    7.6779   41.0841 H         1 <0>         0.0300 
     79 H33        -5.8610    5.7114   30.7331 H         1 <0>         0.3000 
     80 H34        -7.9649    2.0278   31.9659 H         1 <0>         0.3000 
     81 H35       -10.3013    9.0218   39.7556 H         1 <0>         0.2900 
@<TRIPOS>BOND
     1    1   42 1    
     2    1   47 1    
     3    1   48 1    
     4    1   49 1    
     5    2    4 ar   
     6    2   22 ar   
     7    2   50 1    
     8    3    5 ar   
     9    3   22 ar   
    10    3   51 1    
    11    4   23 ar   
    12    4   52 1    
    13    5   23 ar   
    14    5   53 1    
    15    6    7 ar   
    16    6   24 ar   
    17    6   54 1    
    18    7   25 ar   
    19    7   55 1    
    20    8    9 ar   
    21    8   26 ar   
    22    8   56 1    
    23    9   35 ar   
    24    9   57 1    
    25   10   24 ar   
    26   10   31 ar   
    27   10   58 1    
    28   11   27 ar   
    29   11   29 ar   
    30   11   59 1    
    31   12   28 ar   
    32   12   30 ar   
    33   12   60 1    
    34   13   14 1    
    35   13   34 1    
    36   13   61 1    
    37   13   62 1    
    38   14   34 1    
    39   14   63 1    
    40   14   64 1    
    41   15   17 1    
    42   15   38 1    
    43   15   65 1    
    44   15   66 1    
    45   16   18 1    
    46   16   38 1    
    47   16   67 1    
    48   16   68 1    
    49   17   41 1    
    50   17   69 1    
    51   17   70 1    
    52   18   41 1    
    53   18   71 1    
    54   18   72 1    
    55   19   20 1    
    56   19   21 1    
    57   19   73 1    
    58   19   74 1    
    59   20   38 1    
    60   20   75 1    
    61   20   76 1    
    62   21   43 1    
    63   21   77 1    
    64   21   78 1    
    65   22   36 1    
    66   23   45 1    
    67   24   37 1    
    68   25   31 ar   
    69   25   44 1    
    70   26   27 ar   
    71   26   44 1    
    72   27   28 ar   
    73   28   35 ar   
    74   29   30 ar   
    75   29   42 1    
    76   30   43 1    
    77   31   46 1    
    78   32   34 1    
    79   32   36 am   BACKBONE|DICT|INTERRES
    80   32   39 2    
    81   33   34 1    
    82   33   37 am   BACKBONE|DICT|INTERRES
    83   33   40 2    
    84   36   79 1    
    85   37   80 1    
    86   38   81 1    
@<TRIPOS>SUBSTRUCTURE
     1 <0>         1 GROUP             0       ****    0 ROOT    
@<TRIPOS>MOLECULE
met-ligand
81   86    1
SMALL
USER_CHARGES


@<TRIPOS>ATOM
      1 C1        -13.8307    5.3657   35.4676 C.3       1 <0>         0.1100 
      2 C2         -3.5536    5.9749   30.4488 C.ar      1 <0>        -0.1150 
      3 C3         -3.4006    3.5532   30.6816 C.ar      1 <0>        -0.1150 
      4 C4         -2.1541    6.0721   30.5738 C.ar      1 <0>        -0.1150 
      5 C5         -2.0029    3.6573   30.8286 C.ar      1 <0>        -0.1150 
      6 C6        -10.8065    2.4983   33.4599 C.ar      1 <0>        -0.1150 
      7 C7        -11.5729    2.0548   34.5524 C.ar      1 <0>        -0.1150 
      8 C8        -10.6007    0.8213   38.8155 C.ar      1 <0>        -0.4849 
      9 C9        -10.1391    1.4709   39.9740 C.ar      1 <0>         0.4305 
     10 C10        -8.8707    1.3302   34.3551 C.ar      1 <0>        -0.1150 
     11 C11       -12.4433    3.6893   37.3049 C.ar      1 <0>        -0.1673 
     12 C12       -11.3509    4.8538   39.6040 C.ar      1 <0>        -0.4407 
     13 C13        -8.8821    3.8720   29.4520 C.3       1 <0>        -0.1200 
     14 C14        -8.4940    5.2721   29.8692 C.3       1 <0>        -0.1200 
     15 C15       -10.6574   11.9906   39.0941 C.3       1 <0>        -0.0744 
     16 C16        -8.8443   10.9737   37.8263 C.3       1 <0>        -0.0744 
     17 C17        -9.6882   13.1108   39.5080 C.3       1 <0>         0.3644 
     18 C18        -7.9324   12.1178   38.2951 C.3       1 <0>         0.3644 
     19 C19       -11.6962    9.1744   39.6648 C.3       1 <0>        -0.1200 
     20 C20       -10.7756    9.5793   38.4915 C.3       1 <0>         0.1500 
     21 C21       -11.6750    7.6678   39.9342 C.3       1 <0>         0.1400 
     22 C22        -4.1920    4.7195   30.5187 C.ar      1 <0>         0.0850 
     23 C23        -1.3802    4.9182   30.7920 C.ar      1 <0>         0.2200 
     24 C24        -9.4445    2.1520   33.3740 C.ar      1 <0>         0.0850 
     25 C25       -10.9787    1.2984   35.5857 C.ar      1 <0>         0.0850 
     26 C26       -11.3416    1.5610   37.8760 C.ar      1 <0>         0.2811 
     27 C27       -11.6400    2.9147   38.1698 C.ar      1 <0>        -0.1736 
     28 C28       -11.1087    3.4890   39.3543 C.ar      1 <0>         0.7341 
     29 C29       -12.6590    5.0632   37.5512 C.ar      1 <0>         0.0494 
     30 C30       -12.0976    5.6525   38.7014 C.ar      1 <0>         0.1955 
     31 C31        -9.6249    0.9110   35.4657 C.ar      1 <0>         0.2200 
     32 C32        -6.4816    3.6966   30.4254 C.2       1 <0>         0.5000 
     33 C33        -8.3738    3.8502   31.9967 C.2       1 <0>         0.5000 
     34 C34        -7.9150    4.0877   30.5987 C.3       1 <0>         0.0000 
     35 N1        -10.3748    2.7720   40.2335 N.ar      1 <0>        -0.7311 
     36 N2         -5.6148    4.7260   30.4969 N.am      1 <0>        -0.3850 
     37 N3         -8.6756    2.5703   32.2706 N.am      1 <0>        -0.3850 
     38 N4         -9.9113   10.7340   38.8257 N.4       1 <0>        -0.1000 
     39 O1         -6.1634    2.5293   30.2097 O.2       1 <0>        -0.5000 
     40 O2         -8.4680    4.7685   32.8177 O.2       1 <0>        -0.5000 
     41 O3         -8.7079   13.2931   38.4938 O.3       1 <0>        -0.4000 
     42 O4        -13.3952    5.8846   36.7189 O.3       1 <0>        -0.3000 
     43 O5        -12.3193    7.0026   38.8633 O.3       1 <0>        -0.3000 
     44 O6        -11.7209    0.9678   36.6952 O.3       1 <0>        -0.1850 
     45 F1         -0.0392    5.0206   30.9457 F         1 <0>        -0.2200 
     46 F2         -9.0434    0.1297   36.4099 F         1 <0>        -0.2200 
     47 H1        -14.3088    6.1632   34.8977 H         1 <0>         0.0300 
     48 H2        -12.9921    4.9931   34.8746 H         1 <0>         0.0300 
     49 H3        -14.5649    4.5697   35.5997 H         1 <0>         0.0300 
     50 H4         -4.1418    6.8722   30.3210 H         1 <0>         0.1150 
     51 H5         -3.8414    2.5711   30.7525 H         1 <0>         0.1150 
     52 H6         -1.6734    7.0373   30.5275 H         1 <0>         0.1150 
     53 H7         -1.4084    2.7690   30.9827 H         1 <0>         0.1150 
     54 H8        -11.2675    3.0989   32.6889 H         1 <0>         0.1150 
     55 H9        -12.6193    2.3139   34.5969 H         1 <0>         0.1150 
     56 H10       -10.3537   -0.2144   38.6329 H         1 <0>         0.1970 
     57 H11        -9.5473    0.9342   40.7004 H         1 <0>         0.0550 
     58 H12        -7.8389    1.0398   34.2605 H         1 <0>         0.1150 
     59 H13       -12.8972    3.2142   36.4553 H         1 <0>         0.1528 
     60 H14       -10.9344    5.2672   40.5065 H         1 <0>         0.2022 
     61 H15        -8.4844    3.4930   28.5129 H         1 <0>         0.0600 
     62 H16        -9.8877    3.5321   29.6931 H         1 <0>         0.0600 
     63 H17        -9.2505    5.8690   30.3767 H         1 <0>         0.0600 
     64 H18        -7.8380    5.8370   29.2186 H         1 <0>         0.0600 
     65 H19       -11.3896   11.8480   39.8864 H         1 <0>         0.0600 
     66 H20       -11.2087   12.2858   38.1997 H         1 <0>         0.0600 
     67 H21        -9.2830   11.2156   36.8571 H         1 <0>         0.0600 
     68 H22        -8.2483   10.0712   37.6909 H         1 <0>         0.0600 
     69 H23       -10.2332   14.0452   39.6440 H         1 <0>         0.0300 
     70 H24        -9.2089   12.8814   40.4618 H         1 <0>         0.0300 
     71 H25        -7.1525   12.3191   37.5617 H         1 <0>         0.0300 
     72 H26        -7.4381   11.8488   39.2254 H         1 <0>         0.0300 
     73 H27       -11.3936    9.6708   40.5867 H         1 <0>         0.0600 
     74 H28       -12.7165    9.5111   39.4761 H         1 <0>         0.0600 
     75 H29       -11.3685    9.7883   37.6022 H         1 <0>         0.0600 
     76 H30       -10.1263    8.7432   38.2322 H         1 <0>         0.0600 
     77 H31       -10.6371    7.3524   40.0258 H         1 <0>         0.0300 
     78 H32       -12.1849    7.4349   40.8711 H         1 <0>         0.0300 
     79 H33        -6.0415    5.6403   30.5591 H         1 <0>         0.3000 
     80 H34        -8.4308    1.8651   31.5872 H         1 <0>         0.3000 
     81 H35        -9.4387   10.4448   39.6861 H         1 <0>         0.2900 
@<TRIPOS>BOND
     1    1   42 1    
     2    1   47 1    
     3    1   48 1    
     4    1   49 1    
     5    2    4 ar   
     6    2   22 ar   
     7    2   50 1    
     8    3    5 ar   
     9    3   22 ar   
    10    3   51 1    
    11    4   23 ar   
    12    4   52 1    
    13    5   23 ar   
    14    5   53 1    
    15    6    7 ar   
    16    6   24 ar   
    17    6   54 1    
    18    7   25 ar   
    19    7   55 1    
    20    8    9 ar   
    21    8   26 ar   
    22    8   56 1    
    23    9   35 ar   
    24    9   57 1    
    25   10   24 ar   
    26   10   31 ar   
    27   10   58 1    
    28   11   27 ar   
    29   11   29 ar   
    30   11   59 1    
    31   12   28 ar   
    32   12   30 ar   
    33   12   60 1    
    34   13   14 1    
    35   13   34 1    
    36   13   61 1    
    37   13   62 1    
    38   14   34 1    
    39   14   63 1    
    40   14   64 1    
    41   15   17 1    
    42   15   38 1    
    43   15   65 1    
    44   15   66 1    
    45   16   18 1    
    46   16   38 1    
    47   16   67 1    
    48   16   68 1    
    49   17   41 1    
    50   17   69 1    
    51   17   70 1    
    52   18   41 1    
    53   18   71 1    
    54   18   72 1    
    55   19   20 1    
    56   19   21 1    
    57   19   73 1    
    58   19   74 1    
    59   20   38 1    
    60   20   75 1    
    61   20   76 1    
    62   21   43 1    
    63   21   77 1    
    64   21   78 1    
    65   22   36 1    
    66   23   45 1    
    67   24   37 1    
    68   25   31 ar   
    69   25   44 1    
    70   26   27 ar   
    71   26   44 1    
    72   27   28 ar   
    73   28   35 ar   
    74   29   30 ar   
    75   29   42 1    
    76   30   43 1    
    77   31   46 1    
    78   32   34 1    
    79   32   36 am   BACKBONE|DICT|INTERRES
    80   32   39 2    
    81   33   34 1    
    82   33   37 am   BACKBONE|DICT|INTERRES
    83   33   40 2    
    84   36   79 1    
    85   37   80 1    
    86   38   81 1    
@<TRIPOS>SUBSTRUCTURE
     1 <0>         1 GROUP             0       ****    0 ROOT    
@<TRIPOS>MOLECULE
met-ligand
81   86    1
SMALL
USER_CHARGES


@<TRIPOS>ATOM
      1 C1        -13.4903    4.4414   35.1492 C.3       1 <0>         0.1100 
      2 C2         -3.4004    3.5420   30.8225 C.ar      1 <0>        -0.1150 
      3 C3         -3.5881    5.9662   30.6355 C.ar      1 <0>        -0.1150 
      4 C4         -1.9979    3.6546   30.8840 C.ar      1 <0>        -0.1150 
      5 C5         -2.1857    6.0726   30.6794 C.ar      1 <0>        -0.1150 
      6 C6        -11.0350    1.3583   32.9953 C.ar      1 <0>        -0.1150 
      7 C7        -11.6041    0.7385   34.1262 C.ar      1 <0>        -0.1150 
      8 C8        -10.4449   -0.1715   38.5804 C.ar      1 <0>        -0.4849 
      9 C9        -10.0420    0.4599   39.7695 C.ar      1 <0>         0.4305 
     10 C10        -8.8815    1.4207   34.1261 C.ar      1 <0>        -0.1150 
     11 C11       -12.1345    2.7513   36.9879 C.ar      1 <0>        -0.1673 
     12 C12       -11.2069    3.8566   39.3850 C.ar      1 <0>        -0.4407 
     13 C13        -8.8249    3.9466   29.3754 C.3       1 <0>        -0.1200 
     14 C14        -8.4979    5.2720   30.0242 C.3       1 <0>        -0.1200 
     15 C15       -11.3356   10.9906   38.4048 C.3       1 <0>        -0.0744 
     16 C16        -9.0815   10.3393   37.7078 C.3       1 <0>        -0.0744 
     17 C17       -10.8061   12.4204   38.6088 C.3       1 <0>         0.3644 
     18 C18        -8.6374   11.7950   37.9237 C.3       1 <0>         0.3644 
     19 C19       -11.6561    8.1707   39.5515 C.3       1 <0>        -0.1200 
     20 C20       -10.6506    8.5908   38.4601 C.3       1 <0>         0.1500 
     21 C21       -11.6249    6.6611   39.7989 C.3       1 <0>         0.1400 
     22 C22        -4.2088    4.7021   30.7027 C.ar      1 <0>         0.0850 
     23 C23        -1.3892    4.9218   30.8252 C.ar      1 <0>         0.2200 
     24 C24        -9.6780    1.7393   33.0114 C.ar      1 <0>         0.0850 
     25 C25       -10.8208    0.4809   35.2726 C.ar      1 <0>         0.0850 
     26 C26       -11.1218    0.5861   37.6072 C.ar      1 <0>         0.2811 
     27 C27       -11.4138    1.9445   37.8951 C.ar      1 <0>        -0.1736 
     28 C28       -10.9550    2.4961   39.1220 C.ar      1 <0>         0.7341 
     29 C29       -12.3577    4.1219   37.2470 C.ar      1 <0>         0.0494 
     30 C30       -11.8834    4.6799   38.4511 C.ar      1 <0>         0.1955 
     31 C31        -9.4387    0.7737   35.2400 C.ar      1 <0>         0.2200 
     32 C32        -6.4686    3.6655   30.4257 C.2       1 <0>         0.5000 
     33 C33        -8.4043    3.5318   31.9210 C.2       1 <0>         0.5000 
     34 C34        -7.9207    3.9956   30.5891 C.3       1 <0>         0.0000 
     35 N1        -10.2850    1.7585   40.0349 N.ar      1 <0>        -0.7311 
     36 N2         -5.6309    4.6800   30.7165 N.am      1 <0>        -0.3850 
     37 N3         -9.1195    2.3922   31.8895 N.am      1 <0>        -0.3850 
     38 N4        -10.2379   10.0084   38.5782 N.4       1 <0>        -0.1000 
     39 O1         -6.1066    2.5587   30.0266 O.2       1 <0>        -0.5000 
     40 O2         -8.1773    4.1767   32.9465 O.2       1 <0>        -0.5000 
     41 O3         -9.7384   12.6685   37.7023 O.3       1 <0>        -0.4000 
     42 O4        -13.0182    4.9667   36.3785 O.3       1 <0>        -0.3000 
     43 O5        -12.1194    6.0245   38.6340 O.3       1 <0>        -0.3000 
     44 O6        -11.4333   -0.0097   36.4039 O.3       1 <0>        -0.1850 
     45 F1         -0.0413    5.0341   30.8938 F         1 <0>        -0.2200 
     46 F2         -8.6393    0.4459   36.2792 F         1 <0>        -0.2200 
     47 H1        -13.9865    5.2328   34.5893 H         1 <0>         0.0300 
     48 H2        -12.6731    4.0630   34.5355 H         1 <0>         0.0300 
     49 H3        -14.2192    3.6484   35.3111 H         1 <0>         0.0300 
     50 H4         -3.8360    2.5579   30.9004 H         1 <0>         0.1150 
     51 H5         -4.1874    6.8614   30.5506 H         1 <0>         0.1150 
     52 H6         -1.3905    2.7676   30.9886 H         1 <0>         0.1150 
     53 H7         -1.7141    7.0427   30.6222 H         1 <0>         0.1150 
     54 H8        -11.6516    1.5744   32.1349 H         1 <0>         0.1150 
     55 H9        -12.6570    0.4941   34.1318 H         1 <0>         0.1150 
     56 H10       -10.2036   -1.2081   38.3986 H         1 <0>         0.1970 
     57 H11        -9.5020   -0.0902   40.5261 H         1 <0>         0.0550 
     58 H12        -7.8345    1.6717   34.1334 H         1 <0>         0.1150 
     59 H13       -12.5098    2.3080   36.0826 H         1 <0>         0.1528 
     60 H14       -10.8529    4.2473   40.3263 H         1 <0>         0.2022 
     61 H15        -8.3530    3.7109   28.4257 H         1 <0>         0.0600 
     62 H16        -9.8369    3.5646   29.4939 H         1 <0>         0.0600 
     63 H17        -9.3038    5.7577   30.5688 H         1 <0>         0.0600 
     64 H18        -7.8373    5.9512   29.4917 H         1 <0>         0.0600 
     65 H19       -12.1348   10.7991   39.1188 H         1 <0>         0.0600 
     66 H20       -11.7642   10.8868   37.4069 H         1 <0>         0.0600 
     67 H21        -9.3459   10.1769   36.6608 H         1 <0>         0.0600 
     68 H22        -8.2417    9.6798   37.9385 H         1 <0>         0.0600 
     69 H23       -11.6003   13.1431   38.4233 H         1 <0>         0.0300 
     70 H24       -10.4726   12.5717   39.6367 H         1 <0>         0.0300 
     71 H25        -7.8406   12.0527   37.2255 H         1 <0>         0.0300 
     72 H26        -8.2383   11.9374   38.9296 H         1 <0>         0.0300 
     73 H27       -11.4381    8.6806   40.4891 H         1 <0>         0.0600 
     74 H28       -12.6646    8.4791   39.2753 H         1 <0>         0.0600 
     75 H29       -11.0541    8.3877   37.4669 H         1 <0>         0.0600 
     76 H30        -9.7499    7.9811   38.5566 H         1 <0>         0.0600 
     77 H31       -10.5997    6.3681   40.0251 H         1 <0>         0.0300 
     78 H32       -12.2485    6.3970   40.6533 H         1 <0>         0.0300 
     79 H33        -6.0762    5.5643   30.9147 H         1 <0>         0.3000 
     80 H34        -9.3544    2.0178   30.9821 H         1 <0>         0.3000 
     81 H35        -9.8824   10.0795   39.5306 H         1 <0>         0.2900 
@<TRIPOS>BOND
     1    1   42 1    
     2    1   47 1    
     3    1   48 1    
     4    1   49 1    
     5    2    4 ar   
     6    2   22 ar   
     7    2   50 1    
     8    3    5 ar   
     9    3   22 ar   
    10    3   51 1    
    11    4   23 ar   
    12    4   52 1    
    13    5   23 ar   
    14    5   53 1    
    15    6    7 ar   
    16    6   24 ar   
    17    6   54 1    
    18    7   25 ar   
    19    7   55 1    
    20    8    9 ar   
    21    8   26 ar   
    22    8   56 1    
    23    9   35 ar   
    24    9   57 1    
    25   10   24 ar   
    26   10   31 ar   
    27   10   58 1    
    28   11   27 ar   
    29   11   29 ar   
    30   11   59 1    
    31   12   28 ar   
    32   12   30 ar   
    33   12   60 1    
    34   13   14 1    
    35   13   34 1    
    36   13   61 1    
    37   13   62 1    
    38   14   34 1    
    39   14   63 1    
    40   14   64 1    
    41   15   17 1    
    42   15   38 1    
    43   15   65 1    
    44   15   66 1    
    45   16   18 1    
    46   16   38 1    
    47   16   67 1    
    48   16   68 1    
    49   17   41 1    
    50   17   69 1    
    51   17   70 1    
    52   18   41 1    
    53   18   71 1    
    54   18   72 1    
    55   19   20 1    
    56   19   21 1    
    57   19   73 1    
    58   19   74 1    
    59   20   38 1    
    60   20   75 1    
    61   20   76 1    
    62   21   43 1    
    63   21   77 1    
    64   21   78 1    
    65   22   36 1    
    66   23   45 1    
    67   24   37 1    
    68   25   31 ar   
    69   25   44 1    
    70   26   27 ar   
    71   26   44 1    
    72   27   28 ar   
    73   28   35 ar   
    74   29   30 ar   
    75   29   42 1    
    76   30   43 1    
    77   31   46 1    
    78   32   34 1    
    79   32   36 am   BACKBONE|DICT|INTERRES
    80   32   39 2    
    81   33   34 1    
    82   33   37 am   BACKBONE|DICT|INTERRES
    83   33   40 2    
    84   36   79 1    
    85   37   80 1    
    86   38   81 1    
@<TRIPOS>SUBSTRUCTURE
     1 <0>         1 GROUP             0       ****    0 ROOT    
@<TRIPOS>MOLECULE
met-ligand
81   86    1
SMALL
USER_CHARGES


@<TRIPOS>ATOM
      1 C1        -13.5131    5.8397   35.1184 C.3       1 <0>         0.1100 
      2 C2         -3.4557    6.1763   30.4265 C.ar      1 <0>        -0.1150 
      3 C3         -3.1584    3.7889   30.8017 C.ar      1 <0>        -0.1150 
      4 C4         -2.0593    6.3536   30.4260 C.ar      1 <0>        -0.1150 
      5 C5         -1.7606    3.9692   30.8288 C.ar      1 <0>        -0.1150 
      6 C6        -10.7684    2.6633   33.2788 C.ar      1 <0>        -0.1150 
      7 C7        -11.5799    2.2731   34.3597 C.ar      1 <0>        -0.1150 
      8 C8        -10.8542    1.1464   38.7436 C.ar      1 <0>        -0.4849 
      9 C9        -10.4543    1.7770   39.9338 C.ar      1 <0>         0.4305 
     10 C10        -8.8689    1.5653   34.3299 C.ar      1 <0>        -0.1150 
     11 C11       -12.3548    4.1175   37.0590 C.ar      1 <0>        -0.1673 
     12 C12       -11.4115    5.2272   39.4443 C.ar      1 <0>        -0.4407 
     13 C13        -8.6418    3.7812   29.3344 C.3       1 <0>        -0.1200 
     14 C14        -8.2385    5.2063   29.6251 C.3       1 <0>        -0.1200 
     15 C15       -10.6490   12.0222   37.4843 C.3       1 <0>        -0.0744 
     16 C16        -8.3953   11.3615   38.1641 C.3       1 <0>        -0.0744 
     17 C17       -10.1834   13.4875   37.5281 C.3       1 <0>         0.3644 
     18 C18        -7.9987   12.8468   38.1402 C.3       1 <0>         0.3644 
     19 C19       -11.4255    9.5539   39.4218 C.3       1 <0>        -0.1200 
     20 C20       -10.2678    9.7708   38.4312 C.3       1 <0>         0.1500 
     21 C21       -11.6096    8.0703   39.7474 C.3       1 <0>         0.1400 
     22 C22        -4.0187    4.8965   30.5996 C.ar      1 <0>         0.0850 
     23 C23        -1.2113    5.2525   30.6465 C.ar      1 <0>         0.2200 
     24 C24        -9.4005    2.3279   33.2781 C.ar      1 <0>         0.0850 
     25 C25       -11.0268    1.5892   35.4654 C.ar      1 <0>         0.0850 
     26 C26       -11.4720    1.9187   37.7421 C.ar      1 <0>         0.2811 
     27 C27       -11.6948    3.2960   37.9955 C.ar      1 <0>        -0.1736 
     28 C28       -11.2354    3.8476   39.2204 C.ar      1 <0>         0.7341 
     29 C29       -12.4958    5.5060   37.2742 C.ar      1 <0>         0.0494 
     30 C30       -12.0082    6.0679   38.4706 C.ar      1 <0>         0.1955 
     31 C31        -9.6665    1.2013   35.4273 C.ar      1 <0>         0.2200 
     32 C32        -6.2480    3.7579   30.4263 C.2       1 <0>         0.5000 
     33 C33        -8.2388    3.9453   31.8735 C.2       1 <0>         0.5000 
     34 C34        -7.7073    4.0938   30.4900 C.3       1 <0>         0.0000 
     35 N1        -10.6377    3.0913   40.1668 N.ar      1 <0>        -0.7311 
     36 N2         -5.4387    4.8212   30.6010 N.am      1 <0>        -0.3850 
     37 N3         -8.5779    2.6863   32.1927 N.am      1 <0>        -0.3850 
     38 N4         -9.8455   11.1914   38.4126 N.4       1 <0>        -0.1000 
     39 O1         -5.8591    2.6095   30.2196 O.2       1 <0>        -0.5000 
     40 O2         -8.3611    4.9068   32.6359 O.2       1 <0>        -0.5000 
     41 O3         -8.8004   13.5540   37.2030 O.3       1 <0>        -0.4000 
     42 O4        -13.0864    6.3631   36.3677 O.3       1 <0>        -0.3000 
     43 O5        -12.1487    7.4317   38.6030 O.3       1 <0>        -0.3000 
     44 O6        -11.8222    1.3201   36.5537 O.3       1 <0>        -0.1850 
     45 F1          0.1306    5.4269   30.6710 F         1 <0>        -0.2200 
     46 F2         -9.1124    0.4755   36.4274 F         1 <0>        -0.2200 
     47 H1        -13.9172    6.6481   34.5083 H         1 <0>         0.0300 
     48 H2        -12.6844    5.3948   34.5665 H         1 <0>         0.0300 
     49 H3        -14.3041    5.0979   35.2460 H         1 <0>         0.0300 
     50 H4         -4.1038    7.0284   30.2827 H         1 <0>         0.1150 
     51 H5         -3.5489    2.7953   30.9559 H         1 <0>         0.1150 
     52 H6         -1.6351    7.3370   30.2840 H         1 <0>         0.1150 
     53 H7         -1.1091    3.1227   30.9926 H         1 <0>         0.1150 
     54 H8        -11.1969    3.2137   32.4544 H         1 <0>         0.1150 
     55 H9        -12.6283    2.5292   34.3450 H         1 <0>         0.1150 
     56 H10       -10.6641    0.0938   38.5883 H         1 <0>         0.1970 
     57 H11        -9.9629    1.2144   40.7143 H         1 <0>         0.0550 
     58 H12        -7.8382    1.2711   34.3055 H         1 <0>         0.1150 
     59 H13       -12.7560    3.6683   36.1707 H         1 <0>         0.1528 
     60 H14       -11.0570    5.6161   40.3844 H         1 <0>         0.2022 
     61 H15        -8.2382    3.3054   28.4460 H         1 <0>         0.0600 
     62 H16        -9.6633    3.4918   29.5725 H         1 <0>         0.0600 
     63 H17        -8.9888    5.8710   30.0476 H         1 <0>         0.0600 
     64 H18        -7.5562    5.6720   28.9228 H         1 <0>         0.0600 
     65 H19       -11.7044   11.9599   37.7490 H         1 <0>         0.0600 
     66 H20       -10.5509   11.6350   36.4697 H         1 <0>         0.0600 
     67 H21        -8.1301   10.8759   37.2256 H         1 <0>         0.0600 
     68 H22        -7.8381   10.8718   38.9604 H         1 <0>         0.0600 
     69 H23       -10.7439   14.0828   36.8083 H         1 <0>         0.0300 
     70 H24       -10.3622   13.9249   38.5117 H         1 <0>         0.0300 
     71 H25        -6.9505   12.9486   37.8566 H         1 <0>         0.0300 
     72 H26        -8.1028   13.2929   39.1319 H         1 <0>         0.0300 
     73 H27       -11.1976   10.0710   40.3549 H         1 <0>         0.0600 
     74 H28       -12.3549    9.9837   39.0449 H         1 <0>         0.0600 
     75 H29       -10.5140    9.4089   37.4321 H         1 <0>         0.0600 
     76 H30        -9.4357    9.1581   38.7787 H         1 <0>         0.0600 
     77 H31       -10.6384    7.6627   40.0248 H         1 <0>         0.0300 
     78 H32       -12.2856    7.9401   40.5925 H         1 <0>         0.0300 
     79 H33        -5.9127    5.7102   30.6610 H         1 <0>         0.3000 
     80 H34        -8.3089    1.9466   31.5576 H         1 <0>         0.3000 
     81 H35       -10.0010   11.5281   39.3528 H         1 <0>         0.2900 
@<TRIPOS>BOND
     1    1   42 1    
     2    1   47 1    
     3    1   48 1    
     4    1   49 1    
     5    2    4 ar   
     6    2   22 ar   
     7    2   50 1    
     8    3    5 ar   
     9    3   22 ar   
    10    3   51 1    
    11    4   23 ar   
    12    4   52 1    
    13    5   23 ar   
    14    5   53 1    
    15    6    7 ar   
    16    6   24 ar   
    17    6   54 1    
    18    7   25 ar   
    19    7   55 1    
    20    8    9 ar   
    21    8   26 ar   
    22    8   56 1    
    23    9   35 ar   
    24    9   57 1    
    25   10   24 ar   
    26   10   31 ar   
    27   10   58 1    
    28   11   27 ar   
    29   11   29 ar   
    30   11   59 1    
    31   12   28 ar   
    32   12   30 ar   
    33   12   60 1    
    34   13   14 1    
    35   13   34 1    
    36   13   61 1    
    37   13   62 1    
    38   14   34 1    
    39   14   63 1    
    40   14   64 1    
    41   15   17 1    
    42   15   38 1    
    43   15   65 1    
    44   15   66 1    
    45   16   18 1    
    46   16   38 1    
    47   16   67 1    
    48   16   68 1    
    49   17   41 1    
    50   17   69 1    
    51   17   70 1    
    52   18   41 1    
    53   18   71 1    
    54   18   72 1    
    55   19   20 1    
    56   19   21 1    
    57   19   73 1    
    58   19   74 1    
    59   20   38 1    
    60   20   75 1    
    61   20   76 1    
    62   21   43 1    
    63   21   77 1    
    64   21   78 1    
    65   22   36 1    
    66   23   45 1    
    67   24   37 1    
    68   25   31 ar   
    69   25   44 1    
    70   26   27 ar   
    71   26   44 1    
    72   27   28 ar   
    73   28   35 ar   
    74   29   30 ar   
    75   29   42 1    
    76   30   43 1    
    77   31   46 1    
    78   32   34 1    
    79   32   36 am   BACKBONE|DICT|INTERRES
    80   32   39 2    
    81   33   34 1    
    82   33   37 am   BACKBONE|DICT|INTERRES
    83   33   40 2    
    84   36   79 1    
    85   37   80 1    
    86   38   81 1    
@<TRIPOS>SUBSTRUCTURE
     1 <0>         1 GROUP             0       ****    0 ROOT    
@<TRIPOS>MOLECULE
met-ligand
81   86    1
SMALL
USER_CHARGES


@<TRIPOS>ATOM
      1 C1         -4.3464    6.1332   30.8807 C.3       1 <0>         0.1100 
      2 C2        -10.4140    8.5998   38.0251 C.ar      1 <0>        -0.1150 
      3 C3        -12.6674    8.0384   38.7519 C.ar      1 <0>        -0.1150 
      4 C4        -10.6734    9.9646   38.2534 C.ar      1 <0>        -0.1150 
      5 C5        -12.9288    9.4049   38.9783 C.ar      1 <0>        -0.1150 
      6 C6        -10.1293    2.4181   33.6505 C.ar      1 <0>        -0.1150 
      7 C7         -9.6561    2.1565   32.3473 C.ar      1 <0>        -0.1150 
      8 C8         -7.8167    0.5411   30.1447 C.ar      1 <0>        -0.4849 
      9 C9         -6.8341   -0.4602   30.0992 C.ar      1 <0>         0.4305 
     10 C10        -9.0661    4.5994   33.5795 C.ar      1 <0>        -0.1150 
     11 C11        -5.5431    3.5017   30.4028 C.ar      1 <0>        -0.1673 
     12 C12        -3.7374    1.3611   30.3659 C.ar      1 <0>        -0.4407 
     13 C13       -11.1650    2.8481   38.9494 C.3       1 <0>        -0.1200 
     14 C14        -9.8497    3.5582   38.7322 C.3       1 <0>        -0.1200 
     15 C15         3.0254    4.4777   29.9937 C.3       1 <0>        -0.0744 
     16 C16         1.8025    3.5074   28.1155 C.3       1 <0>        -0.0744 
     17 C17         4.3050    3.8337   29.4331 C.3       1 <0>         0.3644 
     18 C18         3.0959    2.8444   27.6456 C.3       1 <0>         0.3644 
     19 C19         0.1626    3.5547   31.4201 C.3       1 <0>        -0.1200 
     20 C20         0.5599    4.2505   30.1096 C.3       1 <0>         0.1500 
     21 C21        -1.3574    3.4850   31.6248 C.3       1 <0>         0.1400 
     22 C22       -11.4044    7.6234   38.2638 C.ar      1 <0>         0.0850 
     23 C23       -11.9337   10.3675   38.7287 C.ar      1 <0>         0.2200 
     24 C24        -9.8293    3.6501   34.2814 C.ar      1 <0>         0.0850 
     25 C25        -8.8615    3.1056   31.6645 C.ar      1 <0>         0.0850 
     26 C26        -7.4118    1.8807   30.3042 C.ar      1 <0>         0.2811 
     27 C27        -6.0252    2.1704   30.3460 C.ar      1 <0>        -0.1736 
     28 C28        -5.1124    1.0817   30.3037 C.ar      1 <0>         0.7341 
     29 C29        -4.1523    3.7673   30.4258 C.ar      1 <0>         0.0494 
     30 C30        -3.2562    2.6789   30.4368 C.ar      1 <0>         0.1955 
     31 C31        -8.5832    4.3345   32.2895 C.ar      1 <0>         0.2200 
     32 C32       -11.8052    5.1594   38.0121 C.2       1 <0>         0.5000 
     33 C33       -11.0901    3.4012   36.4290 C.2       1 <0>         0.5000 
     34 C34       -11.0381    3.8833   37.8483 C.3       1 <0>         0.0000 
     35 N1         -5.5188   -0.2003   30.1957 N.ar      1 <0>        -0.7311 
     36 N2        -11.0380    6.2681   38.0259 N.am      1 <0>        -0.3850 
     37 N3        -10.1904    3.9823   35.6154 N.am      1 <0>        -0.3850 
     38 N4          1.8310    3.7020   29.5824 N.4       1 <0>        -0.1000 
     39 O1        -13.0310    5.1583   38.1143 O.2       1 <0>        -0.5000 
     40 O2        -11.8991    2.5490   36.0658 O.2       1 <0>        -0.5000 
     41 O3          4.1833    3.6746   28.0255 O.3       1 <0>        -0.4000 
     42 O4         -3.5946    5.0263   30.4180 O.3       1 <0>        -0.3000 
     43 O5         -1.9003    2.8691   30.4639 O.3       1 <0>        -0.3000 
     44 O6         -8.3654    2.8606   30.4059 O.3       1 <0>        -0.1850 
     45 F1        -12.1902   11.6799   38.9461 F         1 <0>        -0.2200 
     46 F2         -7.8388    5.2719   31.6648 F         1 <0>        -0.2200 
     47 H1         -3.6999    6.7612   31.4945 H         1 <0>         0.0300 
     48 H2         -4.6380    6.7350   30.0258 H         1 <0>         0.0300 
     49 H3         -5.2107    5.8826   31.4982 H         1 <0>         0.0300 
     50 H4         -9.4381    8.3050   37.6712 H         1 <0>         0.1150 
     51 H5        -13.4516    7.3347   38.9754 H         1 <0>         0.1150 
     52 H6         -9.9022   10.6988   38.0765 H         1 <0>         0.1150 
     53 H7        -13.8933    9.7152   39.3519 H         1 <0>         0.1150 
     54 H8        -10.7005    1.6517   34.1521 H         1 <0>         0.1150 
     55 H9         -9.8952    1.2121   31.8846 H         1 <0>         0.1150 
     56 H10        -8.8612    0.2804   30.0704 H         1 <0>         0.1970 
     57 H11        -7.1107   -1.4981   29.9893 H         1 <0>         0.0550 
     58 H12        -8.8332    5.5502   34.0247 H         1 <0>         0.1150 
     59 H13        -6.2440    4.3159   30.3544 H         1 <0>         0.1528 
     60 H14        -3.0378    0.5390   30.3442 H         1 <0>         0.2022 
     61 H15       -11.7445    3.1122   39.8311 H         1 <0>         0.0600 
     62 H16       -11.2300    1.8012   38.6603 H         1 <0>         0.0600 
     63 H17        -9.0382    2.9907   38.2847 H         1 <0>         0.0600 
     64 H18        -9.5434    4.2999   39.4661 H         1 <0>         0.0600 
     65 H19         3.0771    4.5323   31.0820 H         1 <0>         0.0600 
     66 H20         2.9409    5.5015   29.6263 H         1 <0>         0.0600 
     67 H21         1.6725    4.4728   27.6273 H         1 <0>         0.0600 
     68 H22         0.9618    2.8720   27.8404 H         1 <0>         0.0600 
     69 H23         5.1688    4.4642   29.6446 H         1 <0>         0.0300 
     70 H24         4.4979    2.8718   29.9053 H         1 <0>         0.0300 
     71 H25         3.0902    2.7081   26.5673 H         1 <0>         0.0300 
     72 H26         3.1973    1.8470   28.0636 H         1 <0>         0.0300 
     73 H27         0.5421    2.5333   31.4200 H         1 <0>         0.0600 
     74 H28         0.6371    4.0687   32.2580 H         1 <0>         0.0600 
     75 H29         0.6097    5.3328   30.2344 H         1 <0>         0.0600 
     76 H30        -0.2139    4.0860   29.3639 H         1 <0>         0.0600 
     77 H31        -1.6007    2.8719   32.4941 H         1 <0>         0.0300 
     78 H32        -1.7479    4.4868   31.8008 H         1 <0>         0.0300 
     79 H33       -10.0526    6.1234   37.8557 H         1 <0>         0.3000 
     80 H34        -9.6436    4.7311   36.0254 H         1 <0>         0.3000 
     81 H35         1.9196    2.7737   29.9732 H         1 <0>         0.2900 
@<TRIPOS>BOND
     1    1   42 1    
     2    1   47 1    
     3    1   48 1    
     4    1   49 1    
     5    2    4 ar   
     6    2   22 ar   
     7    2   50 1    
     8    3    5 ar   
     9    3   22 ar   
    10    3   51 1    
    11    4   23 ar   
    12    4   52 1    
    13    5   23 ar   
    14    5   53 1    
    15    6    7 ar   
    16    6   24 ar   
    17    6   54 1    
    18    7   25 ar   
    19    7   55 1    
    20    8    9 ar   
    21    8   26 ar   
    22    8   56 1    
    23    9   35 ar   
    24    9   57 1    
    25   10   24 ar   
    26   10   31 ar   
    27   10   58 1    
    28   11   27 ar   
    29   11   29 ar   
    30   11   59 1    
    31   12   28 ar   
    32   12   30 ar   
    33   12   60 1    
    34   13   14 1    
    35   13   34 1    
    36   13   61 1    
    37   13   62 1    
    38   14   34 1    
    39   14   63 1    
    40   14   64 1    
    41   15   17 1    
    42   15   38 1    
    43   15   65 1    
    44   15   66 1    
    45   16   18 1    
    46   16   38 1    
    47   16   67 1    
    48   16   68 1    
    49   17   41 1    
    50   17   69 1    
    51   17   70 1    
    52   18   41 1    
    53   18   71 1    
    54   18   72 1    
    55   19   20 1    
    56   19   21 1    
    57   19   73 1    
    58   19   74 1    
    59   20   38 1    
    60   20   75 1    
    61   20   76 1    
    62   21   43 1    
    63   21   77 1    
    64   21   78 1    
    65   22   36 1    
    66   23   45 1    
    67   24   37 1    
    68   25   31 ar   
    69   25   44 1    
    70   26   27 ar   
    71   26   44 1    
    72   27   28 ar   
    73   28   35 ar   
    74   29   30 ar   
    75   29   42 1    
    76   30   43 1    
    77   31   46 1    
    78   32   34 1    
    79   32   36 am   BACKBONE|DICT|INTERRES
    80   32   39 2    
    81   33   34 1    
    82   33   37 am   BACKBONE|DICT|INTERRES
    83   33   40 2    
    84   36   79 1    
    85   37   80 1    
    86   38   81 1    
@<TRIPOS>SUBSTRUCTURE
     1 <0>         1 GROUP             0       ****    0 ROOT    
@<TRIPOS>MOLECULE
met-ligand
81   86    1
SMALL
USER_CHARGES


@<TRIPOS>ATOM
      1 C1         -5.1272    5.6776   30.7610 C.3       1 <0>         0.1100 
      2 C2        -10.6547    8.6756   38.0245 C.ar      1 <0>        -0.1150 
      3 C3        -12.8027    7.9812   37.0877 C.ar      1 <0>        -0.1150 
      4 C4        -11.0620   10.0217   37.9593 C.ar      1 <0>        -0.1150 
      5 C5        -13.2048    9.3296   37.0223 C.ar      1 <0>        -0.1150 
      6 C6         -8.9314    4.0705   33.6253 C.ar      1 <0>        -0.1150 
      7 C7         -8.5732    3.6391   32.3342 C.ar      1 <0>        -0.1150 
      8 C8         -7.5169   -0.3355   30.4998 C.ar      1 <0>        -0.4849 
      9 C9         -6.3944   -1.1782   30.4468 C.ar      1 <0>         0.4305 
     10 C10        -9.6740    1.8192   34.1699 C.ar      1 <0>        -0.1150 
     11 C11        -5.7291    2.9336   30.4256 C.ar      1 <0>        -0.1673 
     12 C12        -3.6102    1.1142   30.4410 C.ar      1 <0>        -0.4407 
     13 C13       -10.9185    3.1772   39.2858 C.3       1 <0>        -0.1200 
     14 C14        -9.6637    3.9599   38.9764 C.3       1 <0>        -0.1200 
     15 C15         2.9599    4.4470   29.9873 C.3       1 <0>        -0.0744 
     16 C16         1.7996    3.4920   28.0700 C.3       1 <0>        -0.0744 
     17 C17         4.2594    3.8259   29.4426 C.3       1 <0>         0.3644 
     18 C18         3.1055    2.8370   27.6265 C.3       1 <0>         0.3644 
     19 C19         0.0167    3.6083   31.3247 C.3       1 <0>        -0.1200 
     20 C20         0.4948    4.2378   30.0061 C.3       1 <0>         0.1500 
     21 C21        -1.5142    3.6783   31.4686 C.3       1 <0>         0.1400 
     22 C22       -11.5255    7.6479   37.5981 C.ar      1 <0>         0.0850 
     23 C23       -12.3369   10.3497   37.4597 C.ar      1 <0>         0.2200 
     24 C24        -9.4972    3.1693   34.5489 C.ar      1 <0>         0.0850 
     25 C25        -8.7521    2.2919   31.9501 C.ar      1 <0>         0.0850 
     26 C26        -7.3192    1.0580   30.5544 C.ar      1 <0>         0.2811 
     27 C27        -5.9937    1.5490   30.4780 C.ar      1 <0>        -0.1736 
     28 C28        -4.9242    0.6161   30.4521 C.ar      1 <0>         0.7341 
     29 C29        -4.4014    3.4254   30.4257 C.ar      1 <0>         0.0494 
     30 C30        -3.3390    2.4949   30.4535 C.ar      1 <0>         0.1955 
     31 C31        -9.3175    1.3866   32.8780 C.ar      1 <0>         0.2200 
     32 C32       -11.7113    5.1723   37.8549 C.2       1 <0>         0.5000 
     33 C33       -10.7464    3.2098   36.7095 C.2       1 <0>         0.5000 
     34 C34       -10.8238    3.9713   37.9971 C.3       1 <0>         0.0000 
     35 N1         -5.1294   -0.7170   30.4435 N.ar      1 <0>        -0.7311 
     36 N2        -11.0379    6.3199   37.6578 N.am      1 <0>        -0.3850 
     37 N3         -9.8291    3.6722   35.8365 N.am      1 <0>        -0.3850 
     38 N4          1.7796    3.6701   29.5400 N.4       1 <0>        -0.1000 
     39 O1        -12.9373    5.0923   37.9298 O.2       1 <0>        -0.5000 
     40 O2        -11.4786    2.2447   36.4923 O.2       1 <0>        -0.5000 
     41 O3          4.1685    3.6854   28.0297 O.3       1 <0>        -0.4000 
     42 O4         -4.0978    4.7690   30.3986 O.3       1 <0>        -0.3000 
     43 O5         -2.0199    2.8712   30.4226 O.3       1 <0>        -0.3000 
     44 O6         -8.4024    1.8970   30.6775 O.3       1 <0>        -0.1850 
     45 F1        -12.7268   11.6445   37.3905 F         1 <0>        -0.2200 
     46 F2         -9.5380    0.0959   32.5374 F         1 <0>        -0.2200 
     47 H1         -4.7224    6.6882   30.8072 H         1 <0>         0.0300 
     48 H2         -5.9317    5.6719   30.0260 H         1 <0>         0.0300 
     49 H3         -5.5415    5.4379   31.7413 H         1 <0>         0.0300 
     50 H4         -9.6722    8.4418   38.4134 H         1 <0>         0.1150 
     51 H5        -13.4765    7.2158   36.7305 H         1 <0>         0.1150 
     52 H6        -10.3964   10.8031   38.2992 H         1 <0>         0.1150 
     53 H7        -14.1802    9.5847   36.6335 H         1 <0>         0.1150 
     54 H8         -8.7817    5.1032   33.9011 H         1 <0>         0.1150 
     55 H9         -8.1667    4.3539   31.6355 H         1 <0>         0.1150 
     56 H10        -8.5114   -0.7546   30.5220 H         1 <0>         0.1970 
     57 H11        -6.5131   -2.2513   30.4219 H         1 <0>         0.0550 
     58 H12       -10.0804    1.0927   34.8560 H         1 <0>         0.1150 
     59 H13        -6.5644    3.6103   30.3846 H         1 <0>         0.1528 
     60 H14        -2.7920    0.4108   30.4266 H         1 <0>         0.2022 
     61 H15       -11.5788    3.5572   40.0641 H         1 <0>         0.0600 
     62 H16       -10.8717    2.0920   39.2191 H         1 <0>         0.0600 
     63 H17        -8.7723    3.4016   38.6957 H         1 <0>         0.0600 
     64 H18        -9.4749    4.8673   39.5463 H         1 <0>         0.0600 
     65 H19         2.9875    4.4915   31.0776 H         1 <0>         0.0600 
     66 H20         2.8750    5.4739   29.6265 H         1 <0>         0.0600 
     67 H21         1.6975    4.4693   27.6008 H         1 <0>         0.0600 
     68 H22         0.9620    2.8721   27.7509 H         1 <0>         0.0600 
     69 H23         5.1092    4.4665   29.6795 H         1 <0>         0.0300 
     70 H24         4.4524    2.8613   29.9096 H         1 <0>         0.0300 
     71 H25         3.1256    2.7065   26.5480 H         1 <0>         0.0300 
     72 H26         3.2086    1.8367   28.0382 H         1 <0>         0.0300 
     73 H27         0.3116    2.5604   31.3605 H         1 <0>         0.0600 
     74 H28         0.5150    4.0856   32.1665 H         1 <0>         0.0600 
     75 H29         0.5318    5.3258   30.0716 H         1 <0>         0.0600 
     76 H30        -0.2381    4.0193   29.2371 H         1 <0>         0.0600 
     77 H31        -1.8363    3.2723   32.4259 H         1 <0>         0.0300 
     78 H32        -1.8601    4.7089   31.3999 H         1 <0>         0.0300 
     79 H33       -10.0284    6.2426   37.6727 H         1 <0>         0.3000 
     80 H34        -9.3499    4.5265   36.0986 H         1 <0>         0.3000 
     81 H35         1.8472    2.7402   29.9308 H         1 <0>         0.2900 
@<TRIPOS>BOND
     1    1   42 1    
     2    1   47 1    
     3    1   48 1    
     4    1   49 1    
     5    2    4 ar   
     6    2   22 ar   
     7    2   50 1    
     8    3    5 ar   
     9    3   22 ar   
    10    3   51 1    
    11    4   23 ar   
    12    4   52 1    
    13    5   23 ar   
    14    5   53 1    
    15    6    7 ar   
    16    6   24 ar   
    17    6   54 1    
    18    7   25 ar   
    19    7   55 1    
    20    8    9 ar   
    21    8   26 ar   
    22    8   56 1    
    23    9   35 ar   
    24    9   57 1    
    25   10   24 ar   
    26   10   31 ar   
    27   10   58 1    
    28   11   27 ar   
    29   11   29 ar   
    30   11   59 1    
    31   12   28 ar   
    32   12   30 ar   
    33   12   60 1    
    34   13   14 1    
    35   13   34 1    
    36   13   61 1    
    37   13   62 1    
    38   14   34 1    
    39   14   63 1    
    40   14   64 1    
    41   15   17 1    
    42   15   38 1    
    43   15   65 1    
    44   15   66 1    
    45   16   18 1    
    46   16   38 1    
    47   16   67 1    
    48   16   68 1    
    49   17   41 1    
    50   17   69 1    
    51   17   70 1    
    52   18   41 1    
    53   18   71 1    
    54   18   72 1    
    55   19   20 1    
    56   19   21 1    
    57   19   73 1    
    58   19   74 1    
    59   20   38 1    
    60   20   75 1    
    61   20   76 1    
    62   21   43 1    
    63   21   77 1    
    64   21   78 1    
    65   22   36 1    
    66   23   45 1    
    67   24   37 1    
    68   25   31 ar   
    69   25   44 1    
    70   26   27 ar   
    71   26   44 1    
    72   27   28 ar   
    73   28   35 ar   
    74   29   30 ar   
    75   29   42 1    
    76   30   43 1    
    77   31   46 1    
    78   32   34 1    
    79   32   36 am   BACKBONE|DICT|INTERRES
    80   32   39 2    
    81   33   34 1    
    82   33   37 am   BACKBONE|DICT|INTERRES
    83   33   40 2    
    84   36   79 1    
    85   37   80 1    
    86   38   81 1    
@<TRIPOS>SUBSTRUCTURE
     1 <0>         1 GROUP             0       ****    0 ROOT    
@<TRIPOS>MOLECULE
met-ligand
81   86    1
SMALL
USER_CHARGES


@<TRIPOS>ATOM
      1 C1         -7.8341    2.2445   29.9083 C.3       1 <0>         0.1100 
      2 C2        -11.8904   -4.7713   27.0832 C.ar      1 <0>        -0.1150 
      3 C3        -11.8727   -5.6485   24.8066 C.ar      1 <0>        -0.1150 
      4 C4        -12.5244   -3.5992   26.6301 C.ar      1 <0>        -0.1150 
      5 C5        -12.5147   -4.4802   24.3588 C.ar      1 <0>        -0.1150 
      6 C6         -7.0920   -5.5429   30.2916 C.ar      1 <0>        -0.1150 
      7 C7         -6.6383   -4.5569   31.1861 C.ar      1 <0>        -0.1150 
      8 C8         -4.3558   -2.6504   32.4702 C.ar      1 <0>        -0.4849 
      9 C9         -3.0287   -2.1991   32.4234 C.ar      1 <0>         0.4305 
     10 C10        -8.5256   -3.8945   29.2244 C.ar      1 <0>        -0.1150 
     11 C11        -5.9713    0.3743   30.9721 C.ar      1 <0>        -0.1673 
     12 C12        -3.2799    1.0735   30.9843 C.ar      1 <0>        -0.4407 
     13 C13        -8.4035   -9.6166   26.7444 C.3       1 <0>        -0.1200 
     14 C14        -9.4634   -9.5076   27.8088 C.3       1 <0>        -0.1200 
     15 C15         2.2621    4.6584   30.6083 C.3       1 <0>        -0.0744 
     16 C16         1.3515    3.7804   28.5300 C.3       1 <0>        -0.0744 
     17 C17         3.5889    3.9474   30.2834 C.3       1 <0>         0.3644 
     18 C18         2.6995    3.0844   28.2734 C.3       1 <0>         0.3644 
     19 C19        -1.3026    3.4846   30.3789 C.3       1 <0>        -0.1200 
     20 C20        -0.1985    4.5555   30.3266 C.3       1 <0>         0.1500 
     21 C21        -2.7433    4.0178   30.5770 C.3       1 <0>         0.1400 
     22 C22       -11.5419   -5.7891   26.1726 C.ar      1 <0>         0.0850 
     23 C23       -12.8305   -3.4536   25.2653 C.ar      1 <0>         0.2200 
     24 C24        -8.0397   -5.2178   29.2985 C.ar      1 <0>         0.0850 
     25 C25        -7.0931   -3.2220   31.0908 C.ar      1 <0>         0.0850 
     26 C26        -5.3787   -1.8307   31.9480 C.ar      1 <0>         0.2811 
     27 C27        -5.0179   -0.5491   31.4567 C.ar      1 <0>        -0.1736 
     28 C28        -3.6477   -0.1880   31.4694 C.ar      1 <0>         0.7341 
     29 C29        -5.5780    1.6565   30.4980 C.ar      1 <0>         0.0494 
     30 C30        -4.2111    2.0196   30.5189 C.ar      1 <0>         0.1955 
     31 C31        -8.0484   -2.9016   30.1052 C.ar      1 <0>         0.2200 
     32 C32        -9.7936   -7.5235   26.1441 C.2       1 <0>         0.5000 
     33 C33        -8.0317   -7.3186   27.9343 C.2       1 <0>         0.5000 
     34 C34        -8.9383   -8.2499   27.1459 C.3       1 <0>         0.0000 
     35 N1         -2.6782   -1.0000   31.9357 N.ar      1 <0>        -0.7311 
     36 N2        -10.8671   -6.9200   26.6873 N.am      1 <0>        -0.3850 
     37 N3         -8.5919   -6.1840   28.4171 N.am      1 <0>        -0.3850 
     38 N4          1.1185    3.9471   29.9901 N.4       1 <0>        -0.1000 
     39 O1         -9.5419   -7.5286   24.9365 O.2       1 <0>        -0.5000 
     40 O2         -6.8490   -7.6051   28.1251 O.2       1 <0>        -0.5000 
     41 O3          3.7430    3.8453   28.8726 O.3       1 <0>        -0.4000 
     42 O4         -6.4656    2.6018   30.0253 O.3       1 <0>        -0.3000 
     43 O5         -3.8381    3.2593   30.0256 O.3       1 <0>        -0.3000 
     44 O6         -6.6873   -2.2534   31.9804 O.3       1 <0>        -0.1850 
     45 F1        -13.4380   -2.3296   24.8264 F         1 <0>        -0.2200 
     46 F2         -8.5229   -1.6377   30.0081 F         1 <0>        -0.2200 
     47 H1         -8.3857    3.0789   29.4750 H         1 <0>         0.0300 
     48 H2         -7.9723    1.3823   29.2562 H         1 <0>         0.0300 
     49 H3         -8.2711    2.0360   30.8840 H         1 <0>         0.0300 
     50 H4        -11.6559   -4.8712   28.1318 H         1 <0>         0.1150 
     51 H5        -11.6439   -6.4242   24.0952 H         1 <0>         0.1150 
     52 H6        -12.7729   -2.8124   27.3290 H         1 <0>         0.1150 
     53 H7        -12.7640   -4.3708   23.3139 H         1 <0>         0.1150 
     54 H8         -6.7181   -6.5497   30.3995 H         1 <0>         0.1150 
     55 H9         -5.9357   -4.8543   31.9454 H         1 <0>         0.1150 
     56 H10        -4.5625   -3.6168   32.8995 H         1 <0>         0.1970 
     57 H11        -2.2236   -2.8018   32.8106 H         1 <0>         0.0550 
     58 H12        -9.2645   -3.6302   28.4827 H         1 <0>         0.1150 
     59 H13        -7.0089    0.0818   30.9852 H         1 <0>         0.1528 
     60 H14        -2.2380    1.2706   30.9594 H         1 <0>         0.2022 
     61 H15        -8.6972  -10.0135   25.7762 H         1 <0>         0.0600 
     62 H16        -7.4001   -9.8973   27.0615 H         1 <0>         0.0600 
     63 H17        -9.1654   -9.6910   28.8411 H         1 <0>         0.0600 
     64 H18       -10.4723   -9.8319   27.5574 H         1 <0>         0.0600 
     65 H19         2.1323    4.7114   31.6911 H         1 <0>         0.0600 
     66 H20         2.2928    5.6810   30.2352 H         1 <0>         0.0600 
     67 H21         1.3425    4.7552   28.0376 H         1 <0>         0.0600 
     68 H22         0.5624    3.1866   28.0719 H         1 <0>         0.0600 
     69 H23         4.4282    4.5127   30.6902 H         1 <0>         0.0300 
     70 H24         3.6231    2.9548   30.7363 H         1 <0>         0.0300 
     71 H25         2.8859    3.0013   27.2031 H         1 <0>         0.0300 
     72 H26         2.6938    2.0700   28.6729 H         1 <0>         0.0300 
     73 H27        -1.2666    2.8722   29.4809 H         1 <0>         0.0600 
     74 H28        -1.0325    2.8466   31.2165 H         1 <0>         0.0600 
     75 H29        -0.1486    5.0299   31.3079 H         1 <0>         0.0600 
     76 H30        -0.4329    5.3538   29.6257 H         1 <0>         0.0600 
     77 H31        -2.9149    4.2368   31.6255 H         1 <0>         0.0300 
     78 H32        -2.8081    4.9834   30.0776 H         1 <0>         0.0300 
     79 H33       -11.0217   -7.1000   27.6687 H         1 <0>         0.3000 
     80 H34        -9.4952   -5.9431   28.0410 H         1 <0>         0.3000 
     81 H35         1.1136    3.0190   30.3928 H         1 <0>         0.2900 
@<TRIPOS>BOND
     1    1   42 1    
     2    1   47 1    
     3    1   48 1    
     4    1   49 1    
     5    2    4 ar   
     6    2   22 ar   
     7    2   50 1    
     8    3    5 ar   
     9    3   22 ar   
    10    3   51 1    
    11    4   23 ar   
    12    4   52 1    
    13    5   23 ar   
    14    5   53 1    
    15    6    7 ar   
    16    6   24 ar   
    17    6   54 1    
    18    7   25 ar   
    19    7   55 1    
    20    8    9 ar   
    21    8   26 ar   
    22    8   56 1    
    23    9   35 ar   
    24    9   57 1    
    25   10   24 ar   
    26   10   31 ar   
    27   10   58 1    
    28   11   27 ar   
    29   11   29 ar   
    30   11   59 1    
    31   12   28 ar   
    32   12   30 ar   
    33   12   60 1    
    34   13   14 1    
    35   13   34 1    
    36   13   61 1    
    37   13   62 1    
    38   14   34 1    
    39   14   63 1    
    40   14   64 1    
    41   15   17 1    
    42   15   38 1    
    43   15   65 1    
    44   15   66 1    
    45   16   18 1    
    46   16   38 1    
    47   16   67 1    
    48   16   68 1    
    49   17   41 1    
    50   17   69 1    
    51   17   70 1    
    52   18   41 1    
    53   18   71 1    
    54   18   72 1    
    55   19   20 1    
    56   19   21 1    
    57   19   73 1    
    58   19   74 1    
    59   20   38 1    
    60   20   75 1    
    61   20   76 1    
    62   21   43 1    
    63   21   77 1    
    64   21   78 1    
    65   22   36 1    
    66   23   45 1    
    67   24   37 1    
    68   25   31 ar   
    69   25   44 1    
    70   26   27 ar   
    71   26   44 1    
    72   27   28 ar   
    73   28   35 ar   
    74   29   30 ar   
    75   29   42 1    
    76   30   43 1    
    77   31   46 1    
    78   32   34 1    
    79   32   36 am   BACKBONE|DICT|INTERRES
    80   32   39 2    
    81   33   34 1    
    82   33   37 am   BACKBONE|DICT|INTERRES
    83   33   40 2    
    84   36   79 1    
    85   37   80 1    
    86   38   81 1    
@<TRIPOS>SUBSTRUCTURE
     1 <0>         1 GROUP             0       ****    0 ROOT    
