@<TRIPOS>MOLECULE
mk01-ligand
37   39    1
SMALL
USER_CHARGES


@<TRIPOS>ATOM
      1 C1        -11.3767   14.1951   41.2982 C.3       1 <0>        -0.1100 
      2 C2         -9.2281   13.2065   40.6625 C.3       1 <0>        -0.1100 
      3 C3        -14.8035   16.6312   43.3442 C.ar      1 <0>        -0.1150 
      4 C4        -14.6033   16.2103   42.0210 C.ar      1 <0>        -0.1150 
      5 C5        -15.6703   15.8955   44.1711 C.ar      1 <0>        -0.1150 
      6 C6        -15.2637   15.0644   41.5492 C.ar      1 <0>        -0.1150 
      7 C7        -16.3385   14.7571   43.6952 C.ar      1 <0>        -0.1150 
      8 C8        -13.7632   12.2459   41.1385 C.ar      1 <0>        -0.1490 
      9 C9        -14.7664   11.0405   39.4921 C.ar      1 <0>        -0.1630 
     10 C10       -18.2055   12.8352   42.0436 C.ar      1 <0>         0.2660 
     11 C11       -16.1373   14.3259   42.3722 C.ar      1 <0>         0.0000 
     12 C12       -15.0055   11.8015   40.5966 C.ar      1 <0>        -0.0310 
     13 C13       -12.7709   11.7995   40.3059 C.ar      1 <0>        -0.1230 
     14 C14       -16.8277   13.1329   41.8724 C.ar      1 <0>        -0.1700 
     15 C15       -16.3199   12.1023   41.1358 C.ar      1 <0>         0.1710 
     16 C16       -11.2887   11.9046   40.2856 C.2       1 <0>         0.6150 
     17 N1        -13.3996   11.0339   39.3444 N.pl3     1 <0>        -0.2390 
     18 N2        -17.3778   11.2434   40.9443 N.pl3     1 <0>        -0.1490 
     19 N3        -18.5387   11.7021   41.4489 N.2       1 <0>        -0.5310 
     20 N4        -10.6823   13.0275   40.7513 N.am      1 <0>        -0.1400 
     21 O1        -10.6449   10.9999   39.7456 O.2       1 <0>        -0.5000 
     22 H1        -12.2243   14.4903   40.6788 H         1 <0>         0.0600 
     23 H2        -10.7194   15.0621   41.3567 H         1 <0>         0.0600 
     24 H3        -11.7265   13.9968   42.3126 H         1 <0>         0.0600 
     25 H4         -8.6806   12.2713   40.5443 H         1 <0>         0.0600 
     26 H5         -8.9796   13.8491   39.8168 H         1 <0>         0.0600 
     27 H6         -8.8428   13.6824   41.5657 H         1 <0>         0.0600 
     28 H7        -14.2769   17.4915   43.7300 H         1 <0>         0.1150 
     29 H8        -13.9288   16.7461   41.3728 H         1 <0>         0.1150 
     30 H9        -15.8061   16.1777   45.2028 H         1 <0>         0.1150 
     31 H10       -15.0802   14.7337   40.5444 H         1 <0>         0.1150 
     32 H11       -16.9894   14.2033   44.3569 H         1 <0>         0.1150 
     33 H12       -13.6260   12.8357   42.0317 H         1 <0>         0.1180 
     34 H13       -15.4161   10.5117   38.8095 H         1 <0>         0.1550 
     35 H14       -18.9698   13.4051   42.5505 H         1 <0>         0.0720 
     36 H15       -12.9133   10.5280   38.6047 H         1 <0>         0.3170 
     37 H16       -17.3274   10.3502   40.4625 H         1 <0>         0.3410 
@<TRIPOS>BOND
     1    1   20 1    
     2    1   22 1    
     3    1   23 1    
     4    1   24 1    
     5    2   20 1    
     6    2   25 1    
     7    2   26 1    
     8    2   27 1    
     9    3    4 ar   
    10    3    5 ar   
    11    3   28 1    
    12    4    6 ar   
    13    4   29 1    
    14    5    7 ar   
    15    5   30 1    
    16    6   11 ar   
    17    6   31 1    
    18    7   11 ar   
    19    7   32 1    
    20    8   12 ar   
    21    8   13 ar   
    22    8   33 1    
    23    9   12 ar   
    24    9   17 ar   
    25    9   34 1    
    26   10   14 ar   
    27   10   19 ar   
    28   10   35 1    
    29   11   14 1    
    30   12   15 1    
    31   13   16 1    
    32   13   17 ar   
    33   14   15 ar   
    34   15   18 ar   
    35   16   20 am   BACKBONE|DICT|INTERRES
    36   16   21 2    
    37   17   36 1    
    38   18   19 ar   
    39   18   37 1    
@<TRIPOS>SUBSTRUCTURE
     1 <0>         1 GROUP             0       ****    0 ROOT    
