@<TRIPOS>MOLECULE
mk10-ligand
51   54    1
SMALL
USER_CHARGES


@<TRIPOS>ATOM
      1 C1         50.9351    8.2789   29.3624 C.3       1 <0>        -0.1800 
      2 C2         49.3326   12.6270   30.4475 C.ar      1 <0>        -0.1150 
      3 C3         49.3680   12.0302   31.7230 C.ar      1 <0>        -0.1150 
      4 C4         48.5239   12.0775   29.4332 C.ar      1 <0>        -0.1150 
      5 C5         48.5979   10.8807   31.9851 C.ar      1 <0>        -0.1150 
      6 C6         47.7530   10.9276   29.6918 C.ar      1 <0>        -0.1150 
      7 C7         49.4541    5.1800   30.2991 C.ar      1 <0>        -0.1150 
      8 C8         48.2890    3.9323   32.0322 C.ar      1 <0>        -0.1150 
      9 C9         50.6791    4.6384   30.7344 C.ar      1 <0>        -0.1150 
     10 C10        49.5142    3.3913   32.4676 C.ar      1 <0>        -0.1150 
     11 C11        43.6023    9.4436   33.9097 C.ar      1 <0>        -0.1150 
     12 C12        43.9702    8.2000   33.3655 C.ar      1 <0>        -0.1150 
     13 C13        45.4415   10.4969   32.7130 C.ar      1 <0>        -0.1150 
     14 C14        49.8490    8.1634   30.4420 C.3       1 <0>        -0.1200 
     15 C15        46.8957    5.3938   30.5108 C.3       1 <0>         0.0650 
     16 C16        48.2473    4.8341   30.9491 C.ar      1 <0>        -0.1150 
     17 C17        47.7987   10.3215   30.9653 C.ar      1 <0>         0.0000 
     18 C18        50.7230    3.7399   31.8242 C.ar      1 <0>        -0.1150 
     19 C19        44.3401   10.5937   33.5829 C.ar      1 <0>         0.1800 
     20 C20        45.0763    8.0964   32.4893 C.ar      1 <0>        -0.1150 
     21 C21        45.8190    9.2507   32.1549 C.ar      1 <0>         0.0000 
     22 C22        46.9756    9.1217   31.2432 C.ar      1 <0>         0.0000 
     23 C23        47.2935    7.8866   30.7552 C.ar      1 <0>        -0.0732 
     24 C24        45.4615    6.7604   31.9151 C.ar      1 <0>         0.6150 
     25 C25        48.4853    7.7535   29.8762 C.2       1 <0>         0.4700 
     26 C26        52.0330    3.1632   32.2901 C.2       1 <0>         0.7150 
     27 N1         46.5388    6.7179   31.0826 N.pl3     1 <0>         0.0032 
     28 O1         52.0236    2.2915   33.1881 O.co2     1 <0>        -0.8000 
     29 O2         44.7915    5.7676   32.2095 O.2       1 <0>        -0.5000 
     30 O3         48.4071    7.3567   28.7150 O.2       1 <0>        -0.4700 
     31 O4         53.0935    3.5727   31.7666 O.co2     1 <0>        -0.8000 
     32 Cl1        43.8967   12.1227   34.2478 Cl        1 <0>        -0.1800 
     33 H1         51.8959    8.5335   29.8093 H         1 <0>         0.0600 
     34 H2         51.0596    7.3386   28.8241 H         1 <0>         0.0600 
     35 H3         50.6941    9.0543   28.6343 H         1 <0>         0.0600 
     36 H4         49.9241   13.5086   30.2482 H         1 <0>         0.1150 
     37 H5         49.9858   12.4536   32.5014 H         1 <0>         0.1150 
     38 H6         48.4942   12.5389   28.4571 H         1 <0>         0.1150 
     39 H7         48.6270   10.4251   32.9647 H         1 <0>         0.1150 
     40 H8         47.1315   10.5100   28.9131 H         1 <0>         0.1150 
     41 H9         49.4597    5.8570   29.4585 H         1 <0>         0.1150 
     42 H10        47.3778    3.6510   32.5390 H         1 <0>         0.1150 
     43 H11        51.5889    4.9169   30.2227 H         1 <0>         0.1150 
     44 H12        49.5206    2.7047   33.3017 H         1 <0>         0.1150 
     45 H13        42.7569    9.5122   34.5784 H         1 <0>         0.1150 
     46 H14        43.3938    7.3252   33.6307 H         1 <0>         0.1150 
     47 H15        45.9916   11.3979   32.4869 H         1 <0>         0.1150 
     48 H16        49.7329    9.1211   30.9493 H         1 <0>         0.0600 
     49 H17        50.1563    7.4453   31.2016 H         1 <0>         0.0600 
     50 H18        46.1326    4.6594   30.7762 H         1 <0>         0.0600 
     51 H19        46.8595    5.3785   29.4228 H         1 <0>         0.0600 
@<TRIPOS>BOND
     1    1   14 1    
     2    1   33 1    
     3    1   34 1    
     4    1   35 1    
     5    2    3 ar   
     6    2    4 ar   
     7    2   36 1    
     8    3    5 ar   
     9    3   37 1    
    10    4    6 ar   
    11    4   38 1    
    12    5   17 ar   
    13    5   39 1    
    14    6   17 ar   
    15    6   40 1    
    16    7    9 ar   
    17    7   16 ar   
    18    7   41 1    
    19    8   10 ar   
    20    8   16 ar   
    21    8   42 1    
    22    9   18 ar   
    23    9   43 1    
    24   10   18 ar   
    25   10   44 1    
    26   11   12 ar   
    27   11   19 ar   
    28   11   45 1    
    29   12   20 ar   
    30   12   46 1    
    31   13   19 ar   
    32   13   21 ar   
    33   13   47 1    
    34   14   25 1    
    35   14   48 1    
    36   14   49 1    
    37   15   16 1    
    38   15   27 1    
    39   15   50 1    
    40   15   51 1    
    41   17   22 1    
    42   18   26 1    
    43   19   32 1    
    44   20   21 ar   
    45   20   24 ar   
    46   21   22 ar   
    47   22   23 ar   
    48   23   25 1    
    49   23   27 ar   
    50   24   27 ar   
    51   24   29 2    
    52   25   30 2    
    53   26   28 1    
    54   26   31 2    
@<TRIPOS>SUBSTRUCTURE
     1 <0>         1 GROUP             0       ****    0 ROOT    
@<TRIPOS>MOLECULE
mk10-ligand
51   54    1
SMALL
USER_CHARGES


@<TRIPOS>ATOM
      1 C1         51.1687    6.9988   29.1630 C.3       1 <0>        -0.1800 
      2 C2         49.3236   12.6198   30.6993 C.ar      1 <0>        -0.1150 
      3 C3         49.3978   11.8942   31.9045 C.ar      1 <0>        -0.1150 
      4 C4         48.5406   12.1376   29.6321 C.ar      1 <0>        -0.1150 
      5 C5         48.6924   10.6833   32.0429 C.ar      1 <0>        -0.1150 
      6 C6         47.8344   10.9266   29.7670 C.ar      1 <0>        -0.1150 
      7 C7         48.2215    3.9951   32.1138 C.ar      1 <0>        -0.1150 
      8 C8         49.6432    4.2653   30.1584 C.ar      1 <0>        -0.1150 
      9 C9         49.2467    3.2762   32.7584 C.ar      1 <0>        -0.1150 
     10 C10        50.6680    3.5458   30.8031 C.ar      1 <0>        -0.1150 
     11 C11        43.7104    8.8178   33.6977 C.ar      1 <0>        -0.1150 
     12 C12        44.1668    7.6501   33.0605 C.ar      1 <0>        -0.1150 
     13 C13        45.5122   10.0771   32.6525 C.ar      1 <0>        -0.1150 
     14 C14        49.9102    6.7846   30.0168 C.3       1 <0>        -0.1200 
     15 C15        47.3290    5.2792   30.0668 C.3       1 <0>         0.0650 
     16 C16        48.4103    4.4923   30.8040 C.ar      1 <0>        -0.1150 
     17 C17        47.9194   10.1926   30.9692 C.ar      1 <0>         0.0000 
     18 C18        50.4801    3.0421   32.1098 C.ar      1 <0>        -0.1150 
     19 C19        44.3851   10.0331   33.4934 C.ar      1 <0>         0.1800 
     20 C20        45.2991    7.6880   32.2129 C.ar      1 <0>        -0.1150 
     21 C21        45.9787    8.9085   32.0015 C.ar      1 <0>         0.0000 
     22 C22        47.1638    8.9272   31.1179 C.ar      1 <0>         0.0000 
     23 C23        47.5684    7.7601   30.5358 C.ar      1 <0>        -0.0732 
     24 C24        45.7792    6.4320   31.5384 C.ar      1 <0>         0.6150 
     25 C25        48.7881    7.7740   29.6855 C.2       1 <0>         0.4700 
     26 C26        51.5746    2.2717   32.7987 C.2       1 <0>         0.7150 
     27 N1         46.8779    6.5252   30.7387 N.pl3     1 <0>         0.0032 
     28 O1         51.3398    1.7570   33.9151 O.co2     1 <0>        -0.8000 
     29 O2         45.1635    5.3800   31.7260 O.2       1 <0>        -0.5000 
     30 O3         48.9338    8.5639   28.7545 O.2       1 <0>        -0.4700 
     31 O4         52.6876    2.1691   32.2356 O.co2     1 <0>        -0.8000 
     32 Cl1        43.8330   11.4698   34.2729 Cl        1 <0>        -0.1800 
     33 H1         51.9266    6.2529   29.4014 H         1 <0>         0.0600 
     34 H2         50.9443    6.9140   28.0991 H         1 <0>         0.0600 
     35 H3         51.6073    7.9820   29.3372 H         1 <0>         0.0600 
     36 H4         49.8655   13.5483   30.5949 H         1 <0>         0.1150 
     37 H5         49.9958   12.2659   32.7237 H         1 <0>         0.1150 
     38 H6         48.4809   12.6974   28.7103 H         1 <0>         0.1150 
     39 H7         48.7512   10.1289   32.9688 H         1 <0>         0.1150 
     40 H8         47.2324   10.5606   28.9480 H         1 <0>         0.1150 
     41 H9         47.2961    4.1605   32.6442 H         1 <0>         0.1150 
     42 H10        49.8096    4.6412   29.1598 H         1 <0>         0.1150 
     43 H11        49.0802    2.9055   33.7594 H         1 <0>         0.1150 
     44 H12        51.6026    3.3823   30.2864 H         1 <0>         0.1150 
     45 H13        42.8457    8.7784   34.3437 H         1 <0>         0.1150 
     46 H14        43.6381    6.7234   33.2320 H         1 <0>         0.1150 
     47 H15        46.0122   11.0248   32.5213 H         1 <0>         0.1150 
     48 H16        50.1599    6.8943   31.0721 H         1 <0>         0.0600 
     49 H17        49.5445    5.7664   29.8888 H         1 <0>         0.0600 
     50 H18        46.4781    4.6113   29.9181 H         1 <0>         0.0600 
     51 H19        47.6689    5.4474   29.0462 H         1 <0>         0.0600 
@<TRIPOS>BOND
     1    1   14 1    
     2    1   33 1    
     3    1   34 1    
     4    1   35 1    
     5    2    3 ar   
     6    2    4 ar   
     7    2   36 1    
     8    3    5 ar   
     9    3   37 1    
    10    4    6 ar   
    11    4   38 1    
    12    5   17 ar   
    13    5   39 1    
    14    6   17 ar   
    15    6   40 1    
    16    7    9 ar   
    17    7   16 ar   
    18    7   41 1    
    19    8   10 ar   
    20    8   16 ar   
    21    8   42 1    
    22    9   18 ar   
    23    9   43 1    
    24   10   18 ar   
    25   10   44 1    
    26   11   12 ar   
    27   11   19 ar   
    28   11   45 1    
    29   12   20 ar   
    30   12   46 1    
    31   13   19 ar   
    32   13   21 ar   
    33   13   47 1    
    34   14   25 1    
    35   14   48 1    
    36   14   49 1    
    37   15   16 1    
    38   15   27 1    
    39   15   50 1    
    40   15   51 1    
    41   17   22 1    
    42   18   26 1    
    43   19   32 1    
    44   20   21 ar   
    45   20   24 ar   
    46   21   22 ar   
    47   22   23 ar   
    48   23   25 1    
    49   23   27 ar   
    50   24   27 ar   
    51   24   29 2    
    52   25   30 2    
    53   26   28 1    
    54   26   31 2    
@<TRIPOS>SUBSTRUCTURE
     1 <0>         1 GROUP             0       ****    0 ROOT    
