@<TRIPOS>MOLECULE
mk14-ligand
64   69    1
SMALL
USER_CHARGES


@<TRIPOS>ATOM
      1 C1          1.6742    1.6391   29.7959 C.3       1 <0>         0.1100 
      2 C2         -5.5131   -6.3969   28.9370 C.ar      1 <0>        -0.1150 
      3 C3         -5.4034   -5.0787   29.4134 C.ar      1 <0>        -0.1150 
      4 C4         -6.0783   -7.1675   31.1723 C.ar      1 <0>        -0.1150 
      5 C5         -2.0168   -0.2812   27.3103 C.ar      1 <0>        -0.0065 
      6 C6          0.0346   -0.9226   24.3452 C.ar      1 <0>        -0.0205 
      7 C7         -5.8321   -1.5885   32.3774 C.ar      1 <0>         0.1850 
      8 C8         -2.9956   -0.5678   19.4838 C.3       1 <0>        -0.1200 
      9 C9         -3.2939   -2.7913   30.1108 C.3       1 <0>         0.0025 
     10 C10        -2.2278   -1.5928   20.3147 C.3       1 <0>        -0.0500 
     11 C11        -2.1749   -1.7931   30.4582 C.3       1 <0>        -0.0500 
     12 C12        -3.7034   -0.2623   31.6086 C.3       1 <0>         0.0840 
     13 C13        -3.0474    0.1270   21.7812 C.3       1 <0>        -0.0500 
     14 C14        -5.8657   -7.4389   29.8088 C.ar      1 <0>         0.2200 
     15 C15        -5.6076   -4.7969   30.7832 C.ar      1 <0>         0.0000 
     16 C16        -1.1397   -0.4916   26.2218 C.ar      1 <0>         0.0033 
     17 C17        -1.5228    0.2811   28.5097 C.ar      1 <0>        -0.4460 
     18 C18        -5.9412   -5.8559   31.6628 C.ar      1 <0>         0.2200 
     19 C19        -1.2384   -0.9918   24.8719 C.ar      1 <0>        -0.3549 
     20 C20        -4.6608   -1.4139   31.6859 C.ar      1 <0>        -0.2330 
     21 C21         0.2093   -0.1152   26.4560 C.ar      1 <0>         0.6662 
     22 C22        -0.1502    0.6151   28.6033 C.ar      1 <0>         0.5488 
     23 C23        -5.4518   -3.4309   31.2830 C.ar      1 <0>         0.3530 
     24 C24        -3.0356    0.6780   20.3530 C.3       1 <0>         0.2050 
     25 C25        -2.4553    0.5671   29.6475 C.2       1 <0>         0.6150 
     26 C26        -2.4230   -1.4630   24.1590 C.2       1 <0>         0.5850 
     27 C27        -2.1851   -2.0423   22.7438 C.2       1 <0>         0.5000 
     28 N1          0.8874   -0.3852   25.2902 N.pl3     1 <0>        -0.5442 
     29 N2         -6.3271   -2.8592   32.1112 N.2       1 <0>        -0.5630 
     30 N3          0.7311    0.4149   27.5924 N.ar      1 <0>        -0.7065 
     31 N4         -4.4354   -2.5939   30.9886 N.pl3     1 <0>        -0.0735 
     32 N5         -2.7335   -0.4329   30.5133 N.am      1 <0>        -0.1400 
     33 N6         -2.4616   -1.2156   21.7093 N.am      1 <0>        -0.1400 
     34 O1         -4.1613    1.4716   20.0598 O.3       1 <0>        -0.6830 
     35 O2         -2.9421    1.6933   29.7378 O.2       1 <0>        -0.5000 
     36 O3         -3.5644   -1.4293   24.6142 O.2       1 <0>        -0.4700 
     37 O4         -1.7438   -3.1841   22.6098 O.2       1 <0>        -0.5000 
     38 O5          0.3247    1.1812   29.7696 O.3       1 <0>        -0.3000 
     39 F1         -6.0202   -8.6957   29.3313 F         1 <0>        -0.2200 
     40 F2         -6.1252   -5.6232   32.9845 F         1 <0>        -0.2200 
     41 H1          1.8825    2.1095   30.7561 H         1 <0>         0.0300 
     42 H2          2.3818    0.8169   29.6769 H         1 <0>         0.0300 
     43 H3          1.8576    2.3824   29.0190 H         1 <0>         0.0300 
     44 H4         -5.3372   -6.6025   27.8927 H         1 <0>         0.1150 
     45 H5         -5.1568   -4.2925   28.7190 H         1 <0>         0.1150 
     46 H6         -6.3403   -7.9667   31.8475 H         1 <0>         0.1150 
     47 H7         -3.0645   -0.5300   27.2089 H         1 <0>         0.1538 
     48 H8          0.4127   -1.1993   23.3723 H         1 <0>         0.1859 
     49 H9         -6.3539   -0.9060   33.0360 H         1 <0>         0.0750 
     50 H10        -4.0100   -0.9341   19.3370 H         1 <0>         0.0600 
     51 H11        -2.5449   -0.3890   18.5068 H         1 <0>         0.0600 
     52 H12        -3.6162   -2.6443   29.0781 H         1 <0>         0.0600 
     53 H13        -2.9423   -3.8190   30.2041 H         1 <0>         0.0600 
     54 H14        -2.5586   -2.6091   20.0955 H         1 <0>         0.0600 
     55 H15        -1.1592   -1.5296   20.1054 H         1 <0>         0.0600 
     56 H16        -1.3464   -1.9074   29.7562 H         1 <0>         0.0600 
     57 H17        -1.7577   -2.0415   31.4340 H         1 <0>         0.0600 
     58 H18        -3.1554   -0.1831   32.5484 H         1 <0>         0.0600 
     59 H19        -4.2804    0.6614   31.5170 H         1 <0>         0.0600 
     60 H20        -2.5102    0.7889   22.4635 H         1 <0>         0.0600 
     61 H21        -4.0669    0.0092   22.1380 H         1 <0>         0.0600 
     62 H22        -2.1434    1.2775   20.1931 H         1 <0>         0.0600 
     63 H23         1.8745   -0.2300   25.1442 H         1 <0>         0.3906 
     64 H24        -4.9404    0.9444   20.1632 H         1 <0>         0.4180 
@<TRIPOS>BOND
     1    1   38 1    
     2    1   41 1    
     3    1   42 1    
     4    1   43 1    
     5    2    3 ar   
     6    2   14 ar   
     7    2   44 1    
     8    3   15 ar   
     9    3   45 1    
    10    4   14 ar   
    11    4   18 ar   
    12    4   46 1    
    13    5   16 ar   
    14    5   17 ar   
    15    5   47 1    
    16    6   19 ar   
    17    6   28 ar   
    18    6   48 1    
    19    7   20 ar   
    20    7   29 ar   
    21    7   49 1    
    22    8   10 1    
    23    8   24 1    
    24    8   50 1    
    25    8   51 1    
    26    9   11 1    
    27    9   31 1    
    28    9   52 1    
    29    9   53 1    
    30   10   33 1    
    31   10   54 1    
    32   10   55 1    
    33   11   32 1    
    34   11   56 1    
    35   11   57 1    
    36   12   20 1    
    37   12   32 1    
    38   12   58 1    
    39   12   59 1    
    40   13   24 1    
    41   13   33 1    
    42   13   60 1    
    43   13   61 1    
    44   14   39 1    
    45   15   18 ar   
    46   15   23 1    
    47   16   19 ar   
    48   16   21 ar   
    49   17   22 ar   
    50   17   25 1    
    51   18   40 1    
    52   19   26 1    
    53   20   31 ar   
    54   21   28 ar   
    55   21   30 ar   
    56   22   30 ar   
    57   22   38 1    
    58   23   29 ar   
    59   23   31 ar   
    60   24   34 1    
    61   24   62 1    
    62   25   32 am   BACKBONE|DICT|INTERRES
    63   25   35 2    
    64   26   27 1    
    65   26   36 2    
    66   27   33 am   BACKBONE|DICT|INTERRES
    67   27   37 2    
    68   28   63 1    
    69   34   64 1    
@<TRIPOS>SUBSTRUCTURE
     1 <0>         1 GROUP             0       ****    0 ROOT    
@<TRIPOS>MOLECULE
mk14-ligand
64   69    1
SMALL
USER_CHARGES


@<TRIPOS>ATOM
      1 C1          1.6813    1.6323   29.7810 C.3       1 <0>         0.1100 
      2 C2         -5.5443   -6.3207   28.9371 C.ar      1 <0>        -0.1150 
      3 C3         -5.4077   -5.0075   29.4241 C.ar      1 <0>        -0.1150 
      4 C4         -6.1838   -7.0816   31.1586 C.ar      1 <0>        -0.1150 
      5 C5         -2.0080   -0.2892   27.2928 C.ar      1 <0>        -0.0065 
      6 C6          0.0327   -0.9142   24.3184 C.ar      1 <0>        -0.0205 
      7 C7         -5.8017   -1.5189   32.4054 C.ar      1 <0>         0.1850 
      8 C8         -2.9768   -0.5701   19.4651 C.3       1 <0>        -0.1200 
      9 C9         -3.2789   -2.7659   30.1406 C.3       1 <0>         0.0025 
     10 C10        -2.1889   -1.5823   20.2943 C.3       1 <0>        -0.0500 
     11 C11        -2.1468   -1.7820   30.4816 C.3       1 <0>        -0.0500 
     12 C12        -3.6530   -0.2249   31.6332 C.3       1 <0>         0.0840 
     13 C13        -3.0199    0.1318   21.7603 C.3       1 <0>        -0.0500 
     14 C14        -5.9500   -7.3541   29.7994 C.ar      1 <0>         0.2200 
     15 C15        -5.6339   -4.7237   30.7915 C.ar      1 <0>         0.0000 
     16 C16        -1.1363   -0.4949   26.2007 C.ar      1 <0>         0.0033 
     17 C17        -1.5120    0.2692   28.4913 C.ar      1 <0>        -0.4460 
     18 C18        -6.0174   -5.7762   31.6582 C.ar      1 <0>         0.2200 
     19 C19        -1.2384   -0.9868   24.8487 C.ar      1 <0>        -0.3549 
     20 C20        -4.6269   -1.3624   31.7126 C.ar      1 <0>        -0.2330 
     21 C21         0.2148   -0.1213   26.4327 C.ar      1 <0>         0.6662 
     22 C22        -0.1373    0.6002   28.5831 C.ar      1 <0>         0.5488 
     23 C23        -5.4550   -3.3659   31.3005 C.ar      1 <0>         0.3530 
     24 C24        -3.0253    0.6784   20.3312 C.3       1 <0>         0.2050 
     25 C25        -2.4410    0.5670   29.6304 C.2       1 <0>         0.6150 
     26 C26        -2.4226   -1.4597   24.1344 C.2       1 <0>         0.5850 
     27 C27        -2.1775   -2.0415   22.7213 C.2       1 <0>         0.5000 
     28 N1          0.8889   -0.3835   25.2642 N.pl3     1 <0>        -0.5442 
     29 N2         -6.3223   -2.7791   32.1299 N.2       1 <0>        -0.5630 
     30 N3          0.7418    0.4001   27.5713 N.ar      1 <0>        -0.7065 
     31 N4         -4.4203   -2.5466   31.0161 N.pl3     1 <0>        -0.0735 
     32 N5         -2.6907   -0.4128   30.5308 N.am      1 <0>        -0.1400 
     33 N6         -2.4315   -1.2085   21.6868 N.am      1 <0>        -0.1400 
     34 O1         -4.1825    1.4338   20.0468 O.3       1 <0>        -0.6830 
     35 O2         -2.9423    1.6870   29.6989 O.2       1 <0>        -0.5000 
     36 O3         -3.5662   -1.4281   24.5883 O.2       1 <0>        -0.4700 
     37 O4         -1.7432   -3.1843   22.5913 O.2       1 <0>        -0.5000 
     38 O5          0.3362    1.1655   29.7495 O.3       1 <0>        -0.3000 
     39 F1         -6.1334   -8.6037   29.3123 F         1 <0>        -0.2200 
     40 F2         -6.2280   -5.5451   32.9768 F         1 <0>        -0.2200 
     41 H1          1.8753    2.1035   30.7445 H         1 <0>         0.0300 
     42 H2          2.3940    0.8160   29.6658 H         1 <0>         0.0300 
     43 H3          1.8582    2.3806   29.0077 H         1 <0>         0.0300 
     44 H4         -5.3431   -6.5284   27.8991 H         1 <0>         0.1150 
     45 H5         -5.1250   -4.2237   28.7383 H         1 <0>         0.1150 
     46 H6         -6.4893   -7.8755   31.8250 H         1 <0>         0.1150 
     47 H7         -3.0545   -0.5430   27.1963 H         1 <0>         0.1538 
     48 H8          0.4081   -1.1798   23.3414 H         1 <0>         0.1859 
     49 H9         -6.3095   -0.8312   33.0656 H         1 <0>         0.0750 
     50 H10        -3.9900   -0.9486   19.3372 H         1 <0>         0.0600 
     51 H11        -2.5440   -0.3858   18.4831 H         1 <0>         0.0600 
     52 H12        -3.6012   -2.6150   29.1088 H         1 <0>         0.0600 
     53 H13        -2.9421   -3.7969   30.2386 H         1 <0>         0.0600 
     54 H14        -2.5077   -2.6027   20.0735 H         1 <0>         0.0600 
     55 H15        -1.1217   -1.5089   20.0832 H         1 <0>         0.0600 
     56 H16        -1.3238   -1.9049   29.7769 H         1 <0>         0.0600 
     57 H17        -1.7273   -2.0234   31.4597 H         1 <0>         0.0600 
     58 H18        -3.0957   -0.1487   32.5676 H         1 <0>         0.0600 
     59 H19        -4.2168    0.7033   31.5410 H         1 <0>         0.0600 
     60 H20        -2.4773    0.7921   22.4372 H         1 <0>         0.0600 
     61 H21        -4.0387    0.0146   22.1270 H         1 <0>         0.0600 
     62 H22        -2.1429    1.2938   20.1599 H         1 <0>         0.0600 
     63 H23         1.8741   -0.2244   25.1140 H         1 <0>         0.3906 
     64 H24        -4.2597    2.1236   20.6882 H         1 <0>         0.4180 
@<TRIPOS>BOND
     1    1   38 1    
     2    1   41 1    
     3    1   42 1    
     4    1   43 1    
     5    2    3 ar   
     6    2   14 ar   
     7    2   44 1    
     8    3   15 ar   
     9    3   45 1    
    10    4   14 ar   
    11    4   18 ar   
    12    4   46 1    
    13    5   16 ar   
    14    5   17 ar   
    15    5   47 1    
    16    6   19 ar   
    17    6   28 ar   
    18    6   48 1    
    19    7   20 ar   
    20    7   29 ar   
    21    7   49 1    
    22    8   10 1    
    23    8   24 1    
    24    8   50 1    
    25    8   51 1    
    26    9   11 1    
    27    9   31 1    
    28    9   52 1    
    29    9   53 1    
    30   10   33 1    
    31   10   54 1    
    32   10   55 1    
    33   11   32 1    
    34   11   56 1    
    35   11   57 1    
    36   12   20 1    
    37   12   32 1    
    38   12   58 1    
    39   12   59 1    
    40   13   24 1    
    41   13   33 1    
    42   13   60 1    
    43   13   61 1    
    44   14   39 1    
    45   15   18 ar   
    46   15   23 1    
    47   16   19 ar   
    48   16   21 ar   
    49   17   22 ar   
    50   17   25 1    
    51   18   40 1    
    52   19   26 1    
    53   20   31 ar   
    54   21   28 ar   
    55   21   30 ar   
    56   22   30 ar   
    57   22   38 1    
    58   23   29 ar   
    59   23   31 ar   
    60   24   34 1    
    61   24   62 1    
    62   25   32 am   BACKBONE|DICT|INTERRES
    63   25   35 2    
    64   26   27 1    
    65   26   36 2    
    66   27   33 am   BACKBONE|DICT|INTERRES
    67   27   37 2    
    68   28   63 1    
    69   34   64 1    
@<TRIPOS>SUBSTRUCTURE
     1 <0>         1 GROUP             0       ****    0 ROOT    
@<TRIPOS>MOLECULE
mk14-ligand
64   69    1
SMALL
USER_CHARGES


@<TRIPOS>ATOM
      1 C1         -1.3251    6.9580   29.7127 C.3       1 <0>         0.1100 
      2 C2          1.9439   10.8148   18.7721 C.ar      1 <0>        -0.1150 
      3 C3          1.9121   10.4592   20.1344 C.ar      1 <0>        -0.1150 
      4 C4          3.5148    9.0047   18.3393 C.ar      1 <0>        -0.1150 
      5 C5         -0.2322    4.9918   25.4135 C.ar      1 <0>        -0.0065 
      6 C6          1.0502    1.8930   26.8566 C.ar      1 <0>        -0.0205 
      7 C7          3.4207    8.4956   24.0041 C.ar      1 <0>         0.1850 
      8 C8         -2.1717   -0.9812   24.3951 C.3       1 <0>        -0.1200 
      9 C9          0.1552    8.8236   22.5045 C.3       1 <0>         0.0025 
     10 C10        -1.2470    0.2000   24.7019 C.3       1 <0>        -0.0500 
     11 C11        -0.6527    9.0692   23.7955 C.3       1 <0>        -0.0500 
     12 C12         1.1386    8.1009   25.2047 C.3       1 <0>         0.0840 
     13 C13         0.0684   -1.5890   23.7920 C.3       1 <0>        -0.0500 
     14 C14         2.7396   10.0813   17.8720 C.ar      1 <0>         0.2200 
     15 C15         2.6730    9.3657   20.6082 C.ar      1 <0>         0.0000 
     16 C16         0.2251    3.8364   26.0816 C.ar      1 <0>         0.0033 
     17 C17        -0.7284    6.0821   26.1577 C.ar      1 <0>        -0.4460 
     18 C18         3.4853    8.6473   19.7008 C.ar      1 <0>         0.2200 
     19 C19         0.7695    2.5655   25.6888 C.ar      1 <0>        -0.3549 
     20 C20         2.0549    8.4404   24.0691 C.ar      1 <0>        -0.2330 
     21 C21         0.1453    3.8788   27.4967 C.ar      1 <0>         0.6662 
     22 C22        -0.7751    5.9868   27.5709 C.ar      1 <0>         0.5488 
     23 C23         2.6624    9.0050   22.0270 C.ar      1 <0>         0.3530 
     24 C24        -1.2369   -2.1839   24.3212 C.3       1 <0>         0.2050 
     25 C25        -1.2160    7.3004   25.4292 C.2       1 <0>         0.6150 
     26 C26         0.9911    2.0945   24.3263 C.2       1 <0>         0.5850 
     27 C27         1.1908    0.5769   24.0982 C.2       1 <0>         0.5000 
     28 N1          0.6565    2.6740   27.9320 N.pl3     1 <0>        -0.5442 
     29 N2          3.7956    8.8608   22.7189 N.2       1 <0>        -0.5630 
     30 N3         -0.3353    4.8998   28.2626 N.ar      1 <0>        -0.7065 
     31 N4          1.5792    8.7883   22.8103 N.pl3     1 <0>        -0.0735 
     32 N5         -0.2854    8.0710   24.8149 N.am      1 <0>        -0.1400 
     33 N6          0.0801   -0.1905   24.2103 N.am      1 <0>        -0.1400 
     34 O1         -1.7477   -3.1835   23.4601 O.3       1 <0>        -0.6830 
     35 O2         -2.4286    7.4958   25.3370 O.2       1 <0>        -0.5000 
     36 O3          0.9550    2.8410   23.3497 O.2       1 <0>        -0.4700 
     37 O4          2.2823    0.1344   23.7369 O.2       1 <0>        -0.5000 
     38 O5         -1.2664    7.0572   28.2932 O.3       1 <0>        -0.3000 
     39 F1          2.7590   10.4122   16.5587 F         1 <0>        -0.2200 
     40 F2          4.2571    7.6166   20.1277 F         1 <0>        -0.2200 
     41 H1         -1.7468    7.8771   30.1218 H         1 <0>         0.0300 
     42 H2         -1.9639    6.1325   30.0300 H         1 <0>         0.0300 
     43 H3         -0.3306    6.8290   30.1455 H         1 <0>         0.0300 
     44 H4          1.3608   11.6514   18.4161 H         1 <0>         0.1150 
     45 H5          1.3196   11.0468   20.8183 H         1 <0>         0.1150 
     46 H6          4.1331    8.4483   17.6515 H         1 <0>         0.1150 
     47 H7         -0.1977    5.0351   24.3347 H         1 <0>         0.1538 
     48 H8          1.5002    0.9226   27.0177 H         1 <0>         0.1859 
     49 H9          4.1547    8.2967   24.7730 H         1 <0>         0.0750 
     50 H10        -2.6434   -0.8137   23.4251 H         1 <0>         0.0600 
     51 H11        -2.9673   -1.1046   25.1301 H         1 <0>         0.0600 
     52 H12        -0.1392    7.8741   22.0593 H         1 <0>         0.0600 
     53 H13        -0.0619    9.5991   21.7765 H         1 <0>         0.0600 
     54 H14        -1.6179    1.1122   24.2357 H         1 <0>         0.0600 
     55 H15        -1.1933    0.3667   25.7795 H         1 <0>         0.0600 
     56 H16        -1.7178    9.0559   23.5562 H         1 <0>         0.0600 
     57 H17        -0.4425   10.0650   24.1890 H         1 <0>         0.0600 
     58 H18         1.2569    8.8430   25.9962 H         1 <0>         0.0600 
     59 H19         1.4798    7.1577   25.6314 H         1 <0>         0.0600 
     60 H20         0.9427   -2.1461   24.1370 H         1 <0>         0.0600 
     61 H21         0.0713   -1.5817   22.7018 H         1 <0>         0.0600 
     62 H22        -1.0768   -2.5927   25.3204 H         1 <0>         0.0600 
     63 H23         0.7968    2.4033   28.8940 H         1 <0>         0.3906 
     64 H24        -1.8865   -2.7875   22.6123 H         1 <0>         0.4180 
@<TRIPOS>BOND
     1    1   38 1    
     2    1   41 1    
     3    1   42 1    
     4    1   43 1    
     5    2    3 ar   
     6    2   14 ar   
     7    2   44 1    
     8    3   15 ar   
     9    3   45 1    
    10    4   14 ar   
    11    4   18 ar   
    12    4   46 1    
    13    5   16 ar   
    14    5   17 ar   
    15    5   47 1    
    16    6   19 ar   
    17    6   28 ar   
    18    6   48 1    
    19    7   20 ar   
    20    7   29 ar   
    21    7   49 1    
    22    8   10 1    
    23    8   24 1    
    24    8   50 1    
    25    8   51 1    
    26    9   11 1    
    27    9   31 1    
    28    9   52 1    
    29    9   53 1    
    30   10   33 1    
    31   10   54 1    
    32   10   55 1    
    33   11   32 1    
    34   11   56 1    
    35   11   57 1    
    36   12   20 1    
    37   12   32 1    
    38   12   58 1    
    39   12   59 1    
    40   13   24 1    
    41   13   33 1    
    42   13   60 1    
    43   13   61 1    
    44   14   39 1    
    45   15   18 ar   
    46   15   23 1    
    47   16   19 ar   
    48   16   21 ar   
    49   17   22 ar   
    50   17   25 1    
    51   18   40 1    
    52   19   26 1    
    53   20   31 ar   
    54   21   28 ar   
    55   21   30 ar   
    56   22   30 ar   
    57   22   38 1    
    58   23   29 ar   
    59   23   31 ar   
    60   24   34 1    
    61   24   62 1    
    62   25   32 am   BACKBONE|DICT|INTERRES
    63   25   35 2    
    64   26   27 1    
    65   26   36 2    
    66   27   33 am   BACKBONE|DICT|INTERRES
    67   27   37 2    
    68   28   63 1    
    69   34   64 1    
@<TRIPOS>SUBSTRUCTURE
     1 <0>         1 GROUP             0       ****    0 ROOT    
