@<TRIPOS>MOLECULE
mmp13-ligand
48   50    1
SMALL
USER_CHARGES


@<TRIPOS>ATOM
      1 C1         -7.7427   27.9715   53.2898 C.ar      1 <0>        -0.1150 
      2 C2         -7.0796   25.7147   53.8762 C.ar      1 <0>        -0.1150 
      3 C3         -7.5009   27.5378   50.2077 C.ar      1 <0>        -0.1150 
      4 C4         -9.7562   26.6296   50.0352 C.ar      1 <0>        -0.1150 
      5 C5         -7.0729   28.4786   54.4128 C.ar      1 <0>        -0.1150 
      6 C6         -6.4176   26.2078   55.0199 C.ar      1 <0>        -0.1150 
      7 C7         -7.6833   28.2080   48.9815 C.ar      1 <0>        -0.1150 
      8 C8         -9.9279   27.2828   48.7987 C.ar      1 <0>        -0.1150 
      9 C9         -1.4796   29.2421   56.1207 C.3       1 <0>        -0.1200 
     10 C10        -2.7625   28.9596   58.2175 C.3       1 <0>        -0.1200 
     11 C11        -1.5238   30.7621   56.3633 C.3       1 <0>         0.1400 
     12 C12        -2.7921   30.4938   58.3396 C.3       1 <0>         0.1400 
     13 C13        -3.9689   28.7933   55.9537 C.3       1 <0>        -0.4339 
     14 C14        -7.7474   26.5897   53.0012 C.ar      1 <0>         0.0850 
     15 C15        -8.5447   26.7515   50.7473 C.ar      1 <0>         0.0850 
     16 C16        -6.4305   27.5883   55.2862 C.ar      1 <0>         0.1380 
     17 C17        -8.8871   28.0684   48.2702 C.ar      1 <0>         0.1800 
     18 C18        -2.3276   26.9556   56.6723 C.2       1 <0>         0.5000 
     19 C19        -2.6713   28.4713   56.7463 C.3       1 <0>         0.1361 
     20 N1         -2.5773   26.3179   55.5126 N.am      1 <0>        -0.2244 
     21 O1         -2.2751   24.9367   55.4652 O.3       1 <0>        -0.4375 
     22 O2         -1.7918   26.3919   57.6290 O.2       1 <0>        -0.5000 
     23 O3         -5.3388   27.1357   57.6418 O.2       1 <0>        -0.5300 
     24 O4         -6.2754   29.4431   57.1470 O.2       1 <0>        -0.5300 
     25 O5         -1.6172   31.0372   57.7530 O.3       1 <0>        -0.4000 
     26 O6         -8.4115   26.0527   51.9242 O.3       1 <0>        -0.1700 
     27 S1         -5.5614   28.2390   56.6981 S.o2      1 <0>         0.8624 
     28 Cl1        -9.0785   28.8474   46.7435 Cl        1 <0>        -0.1800 
     29 H1         -8.2712   28.6613   52.6645 H         1 <0>         0.1150 
     30 H2         -7.0739   24.6534   53.6732 H         1 <0>         0.1150 
     31 H3         -6.5545   27.6275   50.7193 H         1 <0>         0.1150 
     32 H4        -10.5475   26.0176   50.4361 H         1 <0>         0.1150 
     33 H5         -7.0626   29.5397   54.6118 H         1 <0>         0.1150 
     34 H6         -5.9043   25.5366   55.6905 H         1 <0>         0.1150 
     35 H7         -6.8824   28.8049   48.5719 H         1 <0>         0.1150 
     36 H8        -10.8559   27.1757   48.2553 H         1 <0>         0.1150 
     37 H9         -1.4463   29.0637   55.0457 H         1 <0>         0.0600 
     38 H10        -0.5387   28.8663   56.5290 H         1 <0>         0.0600 
     39 H11        -1.8985   28.6085   58.7875 H         1 <0>         0.0600 
     40 H12        -3.6356   28.5427   58.7123 H         1 <0>         0.0600 
     41 H13        -2.3506   31.2355   55.8346 H         1 <0>         0.0300 
     42 H14        -0.6130   31.2213   55.9793 H         1 <0>         0.0300 
     43 H15        -3.6837   30.9200   57.8786 H         1 <0>         0.0300 
     44 H16        -2.8173   30.7847   59.3882 H         1 <0>         0.0300 
     45 H17        -4.0889   29.8703   55.8650 H         1 <0>         0.1787 
     46 H18        -3.9297   28.4400   54.9246 H         1 <0>         0.1787 
     47 H19        -3.1368   26.6101   54.7226 H         1 <0>         0.3000 
     48 H20        -2.2479   24.7363   54.5361 H         1 <0>         0.3619 
@<TRIPOS>BOND
     1    1    5 ar   
     2    1   14 ar   
     3    1   29 1    
     4    2    6 ar   
     5    2   14 ar   
     6    2   30 1    
     7    3    7 ar   
     8    3   15 ar   
     9    3   31 1    
    10    4    8 ar   
    11    4   15 ar   
    12    4   32 1    
    13    5   16 ar   
    14    5   33 1    
    15    6   16 ar   
    16    6   34 1    
    17    7   17 ar   
    18    7   35 1    
    19    8   17 ar   
    20    8   36 1    
    21    9   11 1    
    22    9   19 1    
    23    9   37 1    
    24    9   38 1    
    25   10   12 1    
    26   10   19 1    
    27   10   39 1    
    28   10   40 1    
    29   11   25 1    
    30   11   41 1    
    31   11   42 1    
    32   12   25 1    
    33   12   43 1    
    34   12   44 1    
    35   13   19 1    
    36   13   27 1    
    37   13   45 1    
    38   13   46 1    
    39   14   26 1    
    40   15   26 1    
    41   16   27 1    
    42   17   28 1    
    43   18   19 1    
    44   18   20 am   BACKBONE|DICT|INTERRES
    45   18   22 2    
    46   20   21 1    
    47   20   47 1    
    48   21   48 1    
    49   23   27 2    
    50   24   27 2    
@<TRIPOS>SUBSTRUCTURE
     1 <0>         1 GROUP             0       ****    0 ROOT    
@<TRIPOS>MOLECULE
mmp13-ligand
48   50    1
SMALL
USER_CHARGES


@<TRIPOS>ATOM
      1 C1         -7.5338   27.9125   52.8221 C.ar      1 <0>        -0.1150 
      2 C2         -7.2014   25.7303   53.8676 C.ar      1 <0>        -0.1150 
      3 C3         -7.4409   27.6160   50.1753 C.ar      1 <0>        -0.1150 
      4 C4         -9.5397   26.4373   49.7786 C.ar      1 <0>        -0.1150 
      5 C5         -6.9753   28.5418   53.9517 C.ar      1 <0>        -0.1150 
      6 C6         -6.6418   26.3550   54.9993 C.ar      1 <0>        -0.1150 
      7 C7         -7.6552   28.3876   49.0165 C.ar      1 <0>        -0.1150 
      8 C8         -9.7540   27.2092   48.6199 C.ar      1 <0>        -0.1150 
      9 C9         -1.5889   28.7879   56.1742 C.3       1 <0>        -0.1200 
     10 C10        -3.1114   28.6574   58.1630 C.3       1 <0>        -0.1200 
     11 C11        -1.4189   30.2841   56.4833 C.3       1 <0>         0.1400 
     12 C12        -2.8636   30.1604   58.3705 C.3       1 <0>         0.1400 
     13 C13        -4.0677   28.9116   55.8662 C.3       1 <0>        -0.4339 
     14 C14        -7.6441   26.5051   52.7758 C.ar      1 <0>         0.0850 
     15 C15        -8.3866   26.6423   50.5628 C.ar      1 <0>         0.0850 
     16 C16        -6.5412   27.7600   55.0406 C.ar      1 <0>         0.1380 
     17 C17        -8.8124   28.1852   48.2393 C.ar      1 <0>         0.1800 
     18 C18        -3.0574   26.7767   56.4995 C.2       1 <0>         0.5000 
     19 C19        -2.9439   28.2831   56.6852 C.3       1 <0>         0.1361 
     20 N1         -1.9185   26.0659   56.5639 N.am      1 <0>        -0.2244 
     21 O1         -1.9336   24.8350   55.8691 O.3       1 <0>        -0.4375 
     22 O2         -4.1472   26.2548   56.2602 O.2       1 <0>        -0.5000 
     23 O3         -5.7217   27.5629   57.5403 O.2       1 <0>        -0.5300 
     24 O4         -6.4837   29.8295   56.6734 O.2       1 <0>        -0.5300 
     25 O5         -1.5679   30.5078   57.8845 O.3       1 <0>        -0.4000 
     26 O6         -8.1898   25.8803   51.6848 O.3       1 <0>        -0.1700 
     27 S1         -5.7868   28.5527   56.4553 S.o2      1 <0>         0.8624 
     28 Cl1        -9.0752   29.1313   46.8209 Cl        1 <0>        -0.1800 
     29 H1         -7.8751   28.5100   51.9894 H         1 <0>         0.1150 
     30 H2         -7.2879   24.6540   53.8344 H         1 <0>         0.1150 
     31 H3         -6.5508   27.7720   50.7669 H         1 <0>         0.1150 
     32 H4        -10.2623   25.6886   50.0682 H         1 <0>         0.1150 
     33 H5         -6.8842   29.6177   53.9812 H         1 <0>         0.1150 
     34 H6         -6.2960   25.7581   55.8306 H         1 <0>         0.1150 
     35 H7         -6.9309   29.1334   48.7237 H         1 <0>         0.1150 
     36 H8        -10.6405   27.0511   48.0234 H         1 <0>         0.1150 
     37 H9         -1.5017   28.6140   55.1017 H         1 <0>         0.0600 
     38 H10        -0.7832   28.2247   56.6452 H         1 <0>         0.0600 
     39 H11        -2.4105   28.0853   58.7709 H         1 <0>         0.0600 
     40 H12        -4.1100   28.3905   58.5088 H         1 <0>         0.0600 
     41 H13        -2.1430   30.8805   55.9282 H         1 <0>         0.0300 
     42 H14        -0.4292   30.6199   56.1734 H         1 <0>         0.0300 
     43 H15        -3.6261   30.7534   57.8655 H         1 <0>         0.0300 
     44 H16        -2.9229   30.4063   59.4307 H         1 <0>         0.0300 
     45 H17        -3.9706   29.9970   55.8640 H         1 <0>         0.1787 
     46 H18        -4.0158   28.5978   54.8240 H         1 <0>         0.1787 
     47 H19        -0.9921   26.4659   56.5484 H         1 <0>         0.3000 
     48 H20        -1.0768   24.4723   56.0329 H         1 <0>         0.3619 
@<TRIPOS>BOND
     1    1    5 ar   
     2    1   14 ar   
     3    1   29 1    
     4    2    6 ar   
     5    2   14 ar   
     6    2   30 1    
     7    3    7 ar   
     8    3   15 ar   
     9    3   31 1    
    10    4    8 ar   
    11    4   15 ar   
    12    4   32 1    
    13    5   16 ar   
    14    5   33 1    
    15    6   16 ar   
    16    6   34 1    
    17    7   17 ar   
    18    7   35 1    
    19    8   17 ar   
    20    8   36 1    
    21    9   11 1    
    22    9   19 1    
    23    9   37 1    
    24    9   38 1    
    25   10   12 1    
    26   10   19 1    
    27   10   39 1    
    28   10   40 1    
    29   11   25 1    
    30   11   41 1    
    31   11   42 1    
    32   12   25 1    
    33   12   43 1    
    34   12   44 1    
    35   13   19 1    
    36   13   27 1    
    37   13   45 1    
    38   13   46 1    
    39   14   26 1    
    40   15   26 1    
    41   16   27 1    
    42   17   28 1    
    43   18   19 1    
    44   18   20 am   BACKBONE|DICT|INTERRES
    45   18   22 2    
    46   20   21 1    
    47   20   47 1    
    48   21   48 1    
    49   23   27 2    
    50   24   27 2    
@<TRIPOS>SUBSTRUCTURE
     1 <0>         1 GROUP             0       ****    0 ROOT    
@<TRIPOS>MOLECULE
mmp13-ligand
48   50    1
SMALL
USER_CHARGES


@<TRIPOS>ATOM
      1 C1         -7.5828   27.9874   52.8685 C.ar      1 <0>        -0.1150 
      2 C2         -7.4664   25.6670   53.5640 C.ar      1 <0>        -0.1150 
      3 C3         -9.8310   26.8857   49.6429 C.ar      1 <0>        -0.1150 
      4 C4         -7.5235   27.6426   49.8025 C.ar      1 <0>        -0.1150 
      5 C5         -6.9597   28.3844   54.0642 C.ar      1 <0>        -0.1150 
      6 C6         -6.8243   26.0486   54.7576 C.ar      1 <0>        -0.1150 
      7 C7         -9.9752   27.5904   48.4302 C.ar      1 <0>        -0.1150 
      8 C8         -7.6822   28.3875   48.6150 C.ar      1 <0>        -0.1150 
      9 C9         -1.6147   28.7656   56.2657 C.3       1 <0>        -0.1200 
     10 C10        -3.1174   28.5235   58.2375 C.3       1 <0>        -0.1200 
     11 C11        -1.7367   30.2920   56.4409 C.3       1 <0>         0.1400 
     12 C12        -3.2284   30.0567   58.2541 C.3       1 <0>         0.1400 
     13 C13        -4.0195   28.1761   55.8236 C.3       1 <0>        -0.4339 
     14 C14        -7.8544   26.6233   52.6080 C.ar      1 <0>         0.0850 
     15 C15        -8.6042   26.9051   50.3344 C.ar      1 <0>         0.0850 
     16 C16        -6.5954   27.4115   55.0106 C.ar      1 <0>         0.1380 
     17 C17        -8.9006   28.3425   47.9174 C.ar      1 <0>         0.1800 
     18 C18        -2.4440   26.4621   56.8797 C.2       1 <0>         0.5000 
     19 C19        -2.8320   27.9713   56.8151 C.3       1 <0>         0.1361 
     20 N1         -1.4748   26.1037   57.7363 N.am      1 <0>        -0.2244 
     21 O1         -0.7406   24.9643   57.3390 O.3       1 <0>        -0.4375 
     22 O2         -2.9468   25.6394   56.1112 O.2       1 <0>        -0.5000 
     23 O3         -5.7331   26.7880   57.4311 O.2       1 <0>        -0.5300 
     24 O4         -6.2706   29.2092   56.8990 O.2       1 <0>        -0.5300 
     25 O5         -2.0035   30.6128   57.7980 O.3       1 <0>        -0.4000 
     26 O6         -8.4934   26.1530   51.4796 O.3       1 <0>        -0.1700 
     27 S1         -5.7248   27.9104   56.4819 S.o2      1 <0>         0.8624 
     28 Cl1        -9.0755   29.1876   46.4263 Cl        1 <0>        -0.1800 
     29 H1         -7.8548   28.7503   52.1604 H         1 <0>         0.1150 
     30 H2         -7.6272   24.6175   53.3820 H         1 <0>         0.1150 
     31 H3        -10.6618   26.3180   50.0346 H         1 <0>         0.1150 
     32 H4         -6.5656   27.6436   50.2989 H         1 <0>         0.1150 
     33 H5         -6.7464   29.4272   54.2481 H         1 <0>         0.1150 
     34 H6         -6.5092   25.2974   55.4691 H         1 <0>         0.1150 
     35 H7        -10.9102   27.5526   47.8937 H         1 <0>         0.1150 
     36 H8         -6.8482   28.9500   48.2221 H         1 <0>         0.1150 
     37 H9         -1.4758   28.5468   55.2072 H         1 <0>         0.0600 
     38 H10        -0.6931   28.4540   56.7582 H         1 <0>         0.0600 
     39 H11        -2.3011   28.2589   58.9106 H         1 <0>         0.0600 
     40 H12        -4.0089   28.0785   58.6752 H         1 <0>         0.0600 
     41 H13        -2.5068   30.7213   55.7996 H         1 <0>         0.0300 
     42 H14        -0.7995   30.7697   56.1500 H         1 <0>         0.0300 
     43 H15        -4.0590   30.4148   57.6463 H         1 <0>         0.0300 
     44 H16        -3.4165   30.4012   59.2712 H         1 <0>         0.0300 
     45 H17        -4.0347   29.1882   55.4345 H         1 <0>         0.1787 
     46 H18        -3.9108   27.5448   54.9402 H         1 <0>         0.1787 
     47 H19        -0.8756   26.7394   58.2428 H         1 <0>         0.3000 
     48 H20        -1.0928   24.7787   56.4788 H         1 <0>         0.3619 
@<TRIPOS>BOND
     1    1    5 ar   
     2    1   14 ar   
     3    1   29 1    
     4    2    6 ar   
     5    2   14 ar   
     6    2   30 1    
     7    3    7 ar   
     8    3   15 ar   
     9    3   31 1    
    10    4    8 ar   
    11    4   15 ar   
    12    4   32 1    
    13    5   16 ar   
    14    5   33 1    
    15    6   16 ar   
    16    6   34 1    
    17    7   17 ar   
    18    7   35 1    
    19    8   17 ar   
    20    8   36 1    
    21    9   11 1    
    22    9   19 1    
    23    9   37 1    
    24    9   38 1    
    25   10   12 1    
    26   10   19 1    
    27   10   39 1    
    28   10   40 1    
    29   11   25 1    
    30   11   41 1    
    31   11   42 1    
    32   12   25 1    
    33   12   43 1    
    34   12   44 1    
    35   13   19 1    
    36   13   27 1    
    37   13   45 1    
    38   13   46 1    
    39   14   26 1    
    40   15   26 1    
    41   16   27 1    
    42   17   28 1    
    43   18   19 1    
    44   18   20 am   BACKBONE|DICT|INTERRES
    45   18   22 2    
    46   20   21 1    
    47   20   47 1    
    48   21   48 1    
    49   23   27 2    
    50   24   27 2    
@<TRIPOS>SUBSTRUCTURE
     1 <0>         1 GROUP             0       ****    0 ROOT    
@<TRIPOS>MOLECULE
mmp13-ligand
48   50    1
SMALL
USER_CHARGES


@<TRIPOS>ATOM
      1 C1         -7.5955   27.9874   52.9280 C.ar      1 <0>        -0.1150 
      2 C2         -7.4733   25.6690   53.6243 C.ar      1 <0>        -0.1150 
      3 C3         -9.7801   26.8960   49.6681 C.ar      1 <0>        -0.1150 
      4 C4         -7.4754   27.6413   49.8644 C.ar      1 <0>        -0.1150 
      5 C5         -6.9695   28.3873   54.1210 C.ar      1 <0>        -0.1150 
      6 C6         -6.8284   26.0522   54.8138 C.ar      1 <0>        -0.1150 
      7 C7         -9.9007   27.6033   48.4585 C.ar      1 <0>        -0.1150 
      8 C8         -7.6082   28.3866   48.6716 C.ar      1 <0>        -0.1150 
      9 C9         -1.6075   28.7421   56.2698 C.3       1 <0>        -0.1200 
     10 C10        -3.1077   28.5678   58.2553 C.3       1 <0>        -0.1200 
     11 C11        -1.7123   30.2756   56.4095 C.3       1 <0>         0.1400 
     12 C12        -3.1909   30.1035   58.2394 C.3       1 <0>         0.1400 
     13 C13        -4.0192   28.1776   55.8548 C.3       1 <0>        -0.4339 
     14 C14        -7.8573   26.6233   52.6649 C.ar      1 <0>         0.0850 
     15 C15        -8.5672   26.9080   50.3806 C.ar      1 <0>         0.0850 
     16 C16        -6.5968   27.4154   55.0625 C.ar      1 <0>         0.1380 
     17 C17        -8.8212   28.3542   47.9619 C.ar      1 <0>         0.1800 
     18 C18        -2.4788   26.4650   56.9561 C.2       1 <0>         0.5000 
     19 C19        -2.8325   27.9795   56.8476 C.3       1 <0>         0.1361 
     20 N1         -1.4714   26.1274   57.7813 N.am      1 <0>        -0.2244 
     21 O1         -0.7000   25.0223   57.3503 O.3       1 <0>        -0.4375 
     22 O2         -3.0629   25.6264   56.2641 O.2       1 <0>        -0.5000 
     23 O3         -5.7214   26.7884   57.4719 O.2       1 <0>        -0.5300 
     24 O4         -6.2486   29.2164   56.9514 O.2       1 <0>        -0.5300 
     25 O5         -1.9619   30.6328   57.7597 O.3       1 <0>        -0.4000 
     26 O6         -8.4813   26.1570   51.5299 O.3       1 <0>        -0.1700 
     27 S1         -5.7163   27.9128   56.5260 S.o2      1 <0>         0.8624 
     28 Cl1        -8.9883   29.2054   46.4718 Cl        1 <0>        -0.1800 
     29 H1         -7.8730   28.7520   52.2227 H         1 <0>         0.1150 
     30 H2         -7.6365   24.6161   53.4569 H         1 <0>         0.1150 
     31 H3        -10.6157   26.3248   50.0438 H         1 <0>         0.1150 
     32 H4         -6.5241   27.6364   50.3770 H         1 <0>         0.1150 
     33 H5         -6.7601   29.4310   54.3067 H         1 <0>         0.1150 
     34 H6         -6.5101   25.3017   55.5242 H         1 <0>         0.1150 
     35 H7        -10.8328   27.5762   47.9101 H         1 <0>         0.1150 
     36 H8         -6.7670   28.9443   48.2836 H         1 <0>         0.1150 
     37 H9         -1.4759   28.4917   55.2185 H         1 <0>         0.0600 
     38 H10        -0.6889   28.4354   56.7705 H         1 <0>         0.0600 
     39 H11        -2.2927   28.3053   58.9321 H         1 <0>         0.0600 
     40 H12        -4.0065   28.1519   58.7044 H         1 <0>         0.0600 
     41 H13        -2.4862   30.6950   55.7651 H         1 <0>         0.0300 
     42 H14        -0.7759   30.7364   56.0974 H         1 <0>         0.0300 
     43 H15        -4.0214   30.4606   57.6304 H         1 <0>         0.0300 
     44 H16        -3.3630   30.4810   59.2461 H         1 <0>         0.0300 
     45 H17        -4.0418   29.1887   55.4623 H         1 <0>         0.1787 
     46 H18        -3.9089   27.5397   54.9766 H         1 <0>         0.1787 
     47 H19        -0.8661   26.8099   58.2167 H         1 <0>         0.3000 
     48 H20        -0.1318   24.8404   58.0843 H         1 <0>         0.3619 
@<TRIPOS>BOND
     1    1    5 ar   
     2    1   14 ar   
     3    1   29 1    
     4    2    6 ar   
     5    2   14 ar   
     6    2   30 1    
     7    3    7 ar   
     8    3   15 ar   
     9    3   31 1    
    10    4    8 ar   
    11    4   15 ar   
    12    4   32 1    
    13    5   16 ar   
    14    5   33 1    
    15    6   16 ar   
    16    6   34 1    
    17    7   17 ar   
    18    7   35 1    
    19    8   17 ar   
    20    8   36 1    
    21    9   11 1    
    22    9   19 1    
    23    9   37 1    
    24    9   38 1    
    25   10   12 1    
    26   10   19 1    
    27   10   39 1    
    28   10   40 1    
    29   11   25 1    
    30   11   41 1    
    31   11   42 1    
    32   12   25 1    
    33   12   43 1    
    34   12   44 1    
    35   13   19 1    
    36   13   27 1    
    37   13   45 1    
    38   13   46 1    
    39   14   26 1    
    40   15   26 1    
    41   16   27 1    
    42   17   28 1    
    43   18   19 1    
    44   18   20 am   BACKBONE|DICT|INTERRES
    45   18   22 2    
    46   20   21 1    
    47   20   47 1    
    48   21   48 1    
    49   23   27 2    
    50   24   27 2    
@<TRIPOS>SUBSTRUCTURE
     1 <0>         1 GROUP             0       ****    0 ROOT    
