@<TRIPOS>MOLECULE
mp2k1-ligand
42   43    1
SMALL
USER_CHARGES


@<TRIPOS>ATOM
      1 C1          2.4932   62.9116   33.6635 C.ar      1 <0>        -0.1150 
      2 C2         -5.3483   52.8073   29.9359 C.ar      1 <0>        -0.1150 
      3 C3          2.6969   62.3034   34.9145 C.ar      1 <0>        -0.1150 
      4 C4         -4.9340   54.0799   29.5095 C.ar      1 <0>        -0.1150 
      5 C5          1.9324   62.1673   32.6138 C.ar      1 <0>        -0.1150 
      6 C6         -5.6689   52.6005   31.2880 C.ar      1 <0>        -0.1150 
      7 C7          2.3312   60.9632   35.1335 C.ar      1 <0>        -0.1150 
      8 C8         -4.8474   55.1473   30.4256 C.ar      1 <0>        -0.1150 
      9 C9         -0.2705   56.0966   33.9165 C.1       1 <0>         0.5600 
     10 C10        -3.1890   57.6402   35.1983 C.1       1 <0>         0.5600 
     11 C11         1.5880   60.8167   32.8147 C.ar      1 <0>         0.1800 
     12 C12        -5.5374   53.6498   32.2184 C.ar      1 <0>         0.1800 
     13 C13         1.7676   60.2206   34.0815 C.ar      1 <0>         0.1525 
     14 C14        -5.1065   54.9323   31.7972 C.ar      1 <0>         0.1525 
     15 C15        -1.0374   57.2846   34.1078 C.2       1 <0>         0.0000 
     16 C16        -2.4840   57.1458   34.0753 C.2       1 <0>         0.0000 
     17 C17        -0.3987   58.4491   34.3537 C.2       1 <0>         0.0255 
     18 C18        -3.1269   56.5345   33.0578 C.2       1 <0>         0.0255 
     19 N1          1.1173   60.0723   31.7412 N.pl3     1 <0>        -0.9000 
     20 N2         -5.8500   53.3862   33.5462 N.pl3     1 <0>        -0.9000 
     21 N3         -0.9964   59.6712   34.6208 N.pl3     1 <0>        -0.7254 
     22 N4         -2.4688   56.0723   31.9461 N.pl3     1 <0>        -0.7254 
     23 N5          0.3313   55.1166   33.7880 N.1       1 <0>        -0.5600 
     24 N6         -3.6688   58.0724   36.1527 N.1       1 <0>        -0.5600 
     25 S1          1.3745   58.5204   34.3462 S.3       1 <0>        -0.1600 
     26 S2         -4.8913   56.2657   32.9714 S.3       1 <0>        -0.1600 
     27 H1          2.7722   63.9443   33.5080 H         1 <0>         0.1150 
     28 H2         -5.4354   51.9983   29.2262 H         1 <0>         0.1150 
     29 H3          3.1312   62.8724   35.7151 H         1 <0>         0.1150 
     30 H4         -4.7117   54.2497   28.4668 H         1 <0>         0.1150 
     31 H5          1.7934   62.6318   31.6488 H         1 <0>         0.1150 
     32 H6         -6.0090   51.6285   31.6124 H         1 <0>         0.1150 
     33 H7          2.5061   60.4952   36.0907 H         1 <0>         0.1150 
     34 H8         -4.5607   56.1288   30.0747 H         1 <0>         0.1150 
     35 H9          1.0302   59.0717   31.8782 H         1 <0>         0.3600 
     36 H10         1.5132   60.3065   30.8387 H         1 <0>         0.3600 
     37 H11        -6.0663   52.4515   33.8627 H         1 <0>         0.3600 
     38 H12        -5.6704   54.0736   34.2671 H         1 <0>         0.3600 
     39 H13        -1.9504   59.8799   34.3452 H         1 <0>         0.3537 
     40 H14        -0.4250   60.5007   34.7001 H         1 <0>         0.3537 
     41 H15        -1.5625   56.4617   31.7159 H         1 <0>         0.3537 
     42 H16        -3.0195   55.8394   31.1318 H         1 <0>         0.3537 
@<TRIPOS>BOND
     1    1    3 ar   
     2    1    5 ar   
     3    1   27 1    
     4    2    4 ar   
     5    2    6 ar   
     6    2   28 1    
     7    3    7 ar   
     8    3   29 1    
     9    4    8 ar   
    10    4   30 1    
    11    5   11 ar   
    12    5   31 1    
    13    6   12 ar   
    14    6   32 1    
    15    7   13 ar   
    16    7   33 1    
    17    8   14 ar   
    18    8   34 1    
    19    9   15 1    
    20    9   23 3    
    21   10   16 1    
    22   10   24 3    
    23   11   13 ar   
    24   11   19 1    
    25   12   14 ar   
    26   12   20 1    
    27   13   25 1    
    28   14   26 1    
    29   15   16 1    
    30   15   17 2    
    31   16   18 2    
    32   17   21 1    
    33   17   25 1    
    34   18   22 1    
    35   18   26 1    
    36   19   35 1    
    37   19   36 1    
    38   20   37 1    
    39   20   38 1    
    40   21   39 1    
    41   21   40 1    
    42   22   41 1    
    43   22   42 1    
@<TRIPOS>SUBSTRUCTURE
     1 <0>         1 GROUP             0       ****    0 ROOT    
@<TRIPOS>MOLECULE
mp2k1-ligand
42   43    1
SMALL
USER_CHARGES


@<TRIPOS>ATOM
      1 C1         -6.1428   53.2742   31.0729 C.ar      1 <0>        -0.1150 
      2 C2          2.6265   63.4296   33.1164 C.ar      1 <0>        -0.1150 
      3 C3         -6.5388   54.5773   30.7230 C.ar      1 <0>        -0.1150 
      4 C4          3.1143   62.9596   34.3459 C.ar      1 <0>        -0.1150 
      5 C5         -5.2689   53.0766   32.1579 C.ar      1 <0>        -0.1150 
      6 C6          1.7875   62.6101   32.3463 C.ar      1 <0>        -0.1150 
      7 C7         -6.0687   55.6788   31.4627 C.ar      1 <0>        -0.1150 
      8 C8          2.7243   61.6966   34.8330 C.ar      1 <0>        -0.1150 
      9 C9         -2.8367   58.0912   35.4840 C.1       1 <0>         0.5600 
     10 C10         0.0277   56.6395   34.0603 C.1       1 <0>         0.5600 
     11 C11        -4.7825   54.1774   32.8925 C.ar      1 <0>         0.1800 
     12 C12         1.4593   61.3129   32.7859 C.ar      1 <0>         0.1800 
     13 C13        -5.1987   55.4854   32.5516 C.ar      1 <0>         0.1525 
     14 C14         1.9057   60.8610   34.0471 C.ar      1 <0>         0.1525 
     15 C15        -2.2098   57.6264   34.3055 C.2       1 <0>         0.0000 
     16 C16        -0.7713   57.8034   34.2685 C.2       1 <0>         0.0000 
     17 C17        -2.9532   57.0196   33.3576 C.2       1 <0>         0.0255 
     18 C18        -0.1951   59.0045   34.5164 C.2       1 <0>         0.0255 
     19 N1         -3.8964   53.9597   33.9463 N.pl3     1 <0>        -0.9000 
     20 N2          0.7354   60.4727   31.9455 N.pl3     1 <0>        -0.9000 
     21 N3         -2.4687   56.4723   32.1885 N.pl3     1 <0>        -0.7254 
     22 N4         -0.8689   60.1936   34.7464 N.pl3     1 <0>        -0.7254 
     23 N5         -3.2765   58.4724   36.4773 N.1       1 <0>        -0.5600 
     24 N6          0.6442   55.6658   33.9452 N.1       1 <0>        -0.5600 
     25 S1         -4.7207   56.8903   33.5215 S.3       1 <0>        -0.1600 
     26 S2          1.5656   59.2084   34.5996 S.3       1 <0>        -0.1600 
     27 H1         -6.5074   52.4281   30.5100 H         1 <0>         0.1150 
     28 H2          2.9063   64.4101   32.7581 H         1 <0>         0.1150 
     29 H3         -7.2113   54.7404   29.8922 H         1 <0>         0.1150 
     30 H4          3.7669   63.6022   34.9160 H         1 <0>         0.1150 
     31 H5         -4.9663   52.0731   32.4156 H         1 <0>         0.1150 
     32 H6          1.4340   62.9733   31.3943 H         1 <0>         0.1150 
     33 H7         -6.3938   56.6743   31.1954 H         1 <0>         0.1150 
     34 H8          3.0980   61.3469   35.7842 H         1 <0>         0.1150 
     35 H9         -3.7660   54.7222   34.5955 H         1 <0>         0.3600 
     36 H10        -3.8645   53.0476   34.3763 H         1 <0>         0.3600 
     37 H11         1.0122   60.5209   30.9743 H         1 <0>         0.3600 
     38 H12         0.6766   59.5118   32.2571 H         1 <0>         0.3600 
     39 H13        -1.5314   56.7003   31.8819 H         1 <0>         0.3537 
     40 H14        -3.1143   56.3231   31.4241 H         1 <0>         0.3537 
     41 H15        -1.7954   60.3669   34.3587 H         1 <0>         0.3537 
     42 H16        -0.3329   61.0459   34.8280 H         1 <0>         0.3537 
@<TRIPOS>BOND
     1    1    3 ar   
     2    1    5 ar   
     3    1   27 1    
     4    2    4 ar   
     5    2    6 ar   
     6    2   28 1    
     7    3    7 ar   
     8    3   29 1    
     9    4    8 ar   
    10    4   30 1    
    11    5   11 ar   
    12    5   31 1    
    13    6   12 ar   
    14    6   32 1    
    15    7   13 ar   
    16    7   33 1    
    17    8   14 ar   
    18    8   34 1    
    19    9   15 1    
    20    9   23 3    
    21   10   16 1    
    22   10   24 3    
    23   11   13 ar   
    24   11   19 1    
    25   12   14 ar   
    26   12   20 1    
    27   13   25 1    
    28   14   26 1    
    29   15   16 1    
    30   15   17 2    
    31   16   18 2    
    32   17   21 1    
    33   17   25 1    
    34   18   22 1    
    35   18   26 1    
    36   19   35 1    
    37   19   36 1    
    38   20   37 1    
    39   20   38 1    
    40   21   39 1    
    41   21   40 1    
    42   22   41 1    
    43   22   42 1    
@<TRIPOS>SUBSTRUCTURE
     1 <0>         1 GROUP             0       ****    0 ROOT    
@<TRIPOS>MOLECULE
mp2k1-ligand
42   43    1
SMALL
USER_CHARGES


@<TRIPOS>ATOM
      1 C1          2.3929   63.0397   33.5002 C.ar      1 <0>        -0.1150 
      2 C2         -6.2343   52.8018   31.2241 C.ar      1 <0>        -0.1150 
      3 C3          2.6730   62.4721   34.7522 C.ar      1 <0>        -0.1150 
      4 C4         -5.8504   52.6529   32.5707 C.ar      1 <0>        -0.1150 
      5 C5          1.8135   62.2428   32.4996 C.ar      1 <0>        -0.1150 
      6 C6         -6.1855   54.0714   30.6133 C.ar      1 <0>        -0.1150 
      7 C7          2.3428   61.1358   35.0281 C.ar      1 <0>        -0.1150 
      8 C8         -5.4221   53.7742   33.3088 C.ar      1 <0>        -0.1150 
      9 C9         -0.2238   56.2311   33.7908 C.1       1 <0>         0.5600 
     10 C10        -2.9335   57.9156   35.3944 C.1       1 <0>         0.5600 
     11 C11         1.5512   60.8796   32.7419 C.ar      1 <0>         0.1800 
     12 C12        -5.7530   55.1907   31.3514 C.ar      1 <0>         0.1800 
     13 C13         1.8061   60.3331   34.0142 C.ar      1 <0>         0.1525 
     14 C14        -5.3856   55.0469   32.7048 C.ar      1 <0>         0.1525 
     15 C15        -0.9460   57.4170   34.1114 C.2       1 <0>         0.0000 
     16 C16        -2.3846   57.3099   34.2368 C.2       1 <0>         0.0000 
     17 C17        -0.2828   58.5645   34.3700 C.2       1 <0>         0.0255 
     18 C18        -3.1781   56.6480   33.3682 C.2       1 <0>         0.0255 
     19 N1          1.0746   60.0736   31.7126 N.pl3     1 <0>        -0.9000 
     20 N2         -5.6678   56.4388   30.7465 N.pl3     1 <0>        -0.9000 
     21 N3         -0.8677   59.7844   34.6788 N.pl3     1 <0>        -0.7254 
     22 N4         -2.7562   56.0719   32.1850 N.pl3     1 <0>        -0.7254 
     23 N5          0.3315   55.2463   33.5468 N.1       1 <0>        -0.5600 
     24 N6         -3.2715   58.4723   36.3465 N.1       1 <0>        -0.5600 
     25 S1          1.4829   58.6362   34.3455 S.3       1 <0>        -0.1600 
     26 S2         -4.9190   56.4730   33.6538 S.3       1 <0>        -0.1600 
     27 H1          2.6242   64.0764   33.3052 H         1 <0>         0.1150 
     28 H2         -6.5644   51.9426   30.6579 H         1 <0>         0.1150 
     29 H3          3.1312   63.0684   35.5208 H         1 <0>         0.1150 
     30 H4         -5.8845   51.6792   33.0391 H         1 <0>         0.1150 
     31 H5          1.6024   62.6857   31.5425 H         1 <0>         0.1150 
     32 H6         -6.4740   54.1829   29.5774 H         1 <0>         0.1150 
     33 H7          2.5646   60.7078   35.9925 H         1 <0>         0.1150 
     34 H8         -5.1376   53.6576   34.3438 H         1 <0>         0.1150 
     35 H9          1.0364   59.0761   31.8864 H         1 <0>         0.3600 
     36 H10         1.4364   60.2882   30.7908 H         1 <0>         0.3600 
     37 H11        -6.3995   56.7071   30.0754 H         1 <0>         0.3600 
     38 H12        -5.4416   57.2176   31.3495 H         1 <0>         0.3600 
     39 H13        -1.8128   60.0004   34.3777 H         1 <0>         0.3537 
     40 H14        -0.2875   60.6082   34.7460 H         1 <0>         0.3537 
     41 H15        -1.8864   56.3841   31.7791 H         1 <0>         0.3537 
     42 H16        -3.4651   55.8839   31.4850 H         1 <0>         0.3537 
@<TRIPOS>BOND
     1    1    3 ar   
     2    1    5 ar   
     3    1   27 1    
     4    2    4 ar   
     5    2    6 ar   
     6    2   28 1    
     7    3    7 ar   
     8    3   29 1    
     9    4    8 ar   
    10    4   30 1    
    11    5   11 ar   
    12    5   31 1    
    13    6   12 ar   
    14    6   32 1    
    15    7   13 ar   
    16    7   33 1    
    17    8   14 ar   
    18    8   34 1    
    19    9   15 1    
    20    9   23 3    
    21   10   16 1    
    22   10   24 3    
    23   11   13 ar   
    24   11   19 1    
    25   12   14 ar   
    26   12   20 1    
    27   13   25 1    
    28   14   26 1    
    29   15   16 1    
    30   15   17 2    
    31   16   18 2    
    32   17   21 1    
    33   17   25 1    
    34   18   22 1    
    35   18   26 1    
    36   19   35 1    
    37   19   36 1    
    38   20   37 1    
    39   20   38 1    
    40   21   39 1    
    41   21   40 1    
    42   22   41 1    
    43   22   42 1    
@<TRIPOS>SUBSTRUCTURE
     1 <0>         1 GROUP             0       ****    0 ROOT    
@<TRIPOS>MOLECULE
mp2k1-ligand
42   43    1
SMALL
USER_CHARGES


@<TRIPOS>ATOM
      1 C1          2.3025   63.1353   33.2314 C.ar      1 <0>        -0.1150 
      2 C2         -5.7571   52.5660   31.1496 C.ar      1 <0>        -0.1150 
      3 C3          2.7315   62.6296   34.4704 C.ar      1 <0>        -0.1150 
      4 C4         -5.7120   52.5817   32.5556 C.ar      1 <0>        -0.1150 
      5 C5          1.6080   62.2951   32.3457 C.ar      1 <0>        -0.1150 
      6 C6         -5.4773   53.7397   30.4253 C.ar      1 <0>        -0.1150 
      7 C7          2.4297   61.3078   34.8453 C.ar      1 <0>        -0.1150 
      8 C8         -5.3930   53.7718   33.2360 C.ar      1 <0>        -0.1150 
      9 C9         -0.0894   56.2573   33.9876 C.1       1 <0>         0.5600 
     10 C10        -2.9260   57.9087   35.4114 C.1       1 <0>         0.5600 
     11 C11         1.3879   60.9423   32.6725 C.ar      1 <0>         0.1800 
     12 C12        -5.1601   54.9340   31.1028 C.ar      1 <0>         0.1800 
     13 C13         1.7862   60.4562   33.9314 C.ar      1 <0>         0.1525 
     14 C14        -5.1227   54.9557   32.5196 C.ar      1 <0>         0.1525 
     15 C15        -0.8561   57.4386   34.2220 C.2       1 <0>         0.0000 
     16 C16        -2.3000   57.3074   34.2848 C.2       1 <0>         0.0000 
     17 C17        -0.2346   58.6193   34.4283 C.2       1 <0>         0.0255 
     18 C18        -3.0142   56.6403   33.3525 C.2       1 <0>         0.0255 
     19 N1          0.8073   60.0850   31.7396 N.pl3     1 <0>        -0.9000 
     20 N2         -4.8689   56.0695   30.3493 N.pl3     1 <0>        -0.9000 
     21 N3         -0.8669   59.8252   34.7030 N.pl3     1 <0>        -0.7254 
     22 N4         -2.4689   56.0725   32.2193 N.pl3     1 <0>        -0.7254 
     23 N5          0.5039   55.2735   33.8378 N.1       1 <0>        -0.5600 
     24 N6         -3.3232   58.4627   36.3458 N.1       1 <0>        -0.5600 
     25 S1          1.5312   58.7629   34.3465 S.3       1 <0>        -0.1600 
     26 S2         -4.7806   56.4507   33.4275 S.3       1 <0>        -0.1600 
     27 H1          2.5101   64.1610   32.9604 H         1 <0>         0.1150 
     28 H2         -6.0023   51.6524   30.6287 H         1 <0>         0.1150 
     29 H3          3.2735   63.2705   35.1449 H         1 <0>         0.1150 
     30 H4         -5.9234   51.6809   33.1141 H         1 <0>         0.1150 
     31 H5          1.2852   62.6863   31.3945 H         1 <0>         0.1150 
     32 H6         -5.5078   53.7193   29.3458 H         1 <0>         0.1150 
     33 H7          2.7478   60.9322   35.8070 H         1 <0>         0.1150 
     34 H8         -5.3632   53.7732   34.3150 H         1 <0>         0.1150 
     35 H9          0.7747   59.1029   31.9871 H         1 <0>         0.3600 
     36 H10         1.1313   60.2231   30.7919 H         1 <0>         0.3600 
     37 H11        -5.2330   56.1254   29.4087 H         1 <0>         0.3600 
     38 H12        -4.8909   56.9680   30.8150 H         1 <0>         0.3600 
     39 H13        -1.8200   59.9997   34.4012 H         1 <0>         0.3537 
     40 H14        -0.3189   60.6731   34.7442 H         1 <0>         0.3537 
     41 H15        -1.5632   56.3943   31.9023 H         1 <0>         0.3537 
     42 H16        -3.1090   55.8852   31.4511 H         1 <0>         0.3537 
@<TRIPOS>BOND
     1    1    3 ar   
     2    1    5 ar   
     3    1   27 1    
     4    2    4 ar   
     5    2    6 ar   
     6    2   28 1    
     7    3    7 ar   
     8    3   29 1    
     9    4    8 ar   
    10    4   30 1    
    11    5   11 ar   
    12    5   31 1    
    13    6   12 ar   
    14    6   32 1    
    15    7   13 ar   
    16    7   33 1    
    17    8   14 ar   
    18    8   34 1    
    19    9   15 1    
    20    9   23 3    
    21   10   16 1    
    22   10   24 3    
    23   11   13 ar   
    24   11   19 1    
    25   12   14 ar   
    26   12   20 1    
    27   13   25 1    
    28   14   26 1    
    29   15   16 1    
    30   15   17 2    
    31   16   18 2    
    32   17   21 1    
    33   17   25 1    
    34   18   22 1    
    35   18   26 1    
    36   19   35 1    
    37   19   36 1    
    38   20   37 1    
    39   20   38 1    
    40   21   39 1    
    41   21   40 1    
    42   22   41 1    
    43   22   42 1    
@<TRIPOS>SUBSTRUCTURE
     1 <0>         1 GROUP             0       ****    0 ROOT    
@<TRIPOS>MOLECULE
mp2k1-ligand
42   43    1
SMALL
USER_CHARGES


@<TRIPOS>ATOM
      1 C1         -7.5024   54.0206   32.4387 C.ar      1 <0>        -0.1150 
      2 C2          2.5029   63.3886   32.8379 C.ar      1 <0>        -0.1150 
      3 C3         -6.5954   53.3538   33.2829 C.ar      1 <0>        -0.1150 
      4 C4          1.1310   63.3470   32.5427 C.ar      1 <0>        -0.1150 
      5 C5         -7.0457   55.0478   31.5909 C.ar      1 <0>        -0.1150 
      6 C6          3.0282   62.5576   33.8420 C.ar      1 <0>        -0.1150 
      7 C7         -5.2337   53.7102   33.2693 C.ar      1 <0>        -0.1150 
      8 C8          0.2838   62.4699   33.2488 C.ar      1 <0>        -0.1150 
      9 C9         -0.4978   56.0302   33.6450 C.1       1 <0>         0.5600 
     10 C10        -2.3536   58.4024   35.5157 C.1       1 <0>         0.5600 
     11 C11        -5.6798   55.3967   31.5664 C.ar      1 <0>         0.1800 
     12 C12         2.1880   61.6727   34.5473 C.ar      1 <0>         0.1800 
     13 C13        -4.7667   54.7096   32.3987 C.ar      1 <0>         0.1525 
     14 C14         0.8085   61.6205   34.2420 C.ar      1 <0>         0.1525 
     15 C15        -1.6040   56.9249   33.7321 C.2       1 <0>         0.0000 
     16 C16        -1.4291   58.1715   34.4554 C.2       1 <0>         0.0000 
     17 C17        -2.7949   56.5686   33.2066 C.2       1 <0>         0.0255 
     18 C18        -0.4511   59.0652   34.1887 C.2       1 <0>         0.0255 
     19 N1         -5.2688   56.4440   30.7445 N.pl3     1 <0>        -0.9000 
     20 N2          2.7312   60.8679   35.5462 N.pl3     1 <0>        -0.9000 
     21 N3         -3.9381   57.3421   33.2527 N.pl3     1 <0>        -0.7254 
     22 N4          0.4923   58.9339   33.1827 N.pl3     1 <0>        -0.7254 
     23 N5          0.3760   55.2720   33.6132 N.1       1 <0>        -0.5600 
     24 N6         -3.1533   58.5079   36.3461 N.1       1 <0>        -0.5600 
     25 S1         -3.0269   55.0354   32.3457 S.3       1 <0>        -0.1600 
     26 S2         -0.2929   60.5599   35.1451 S.3       1 <0>        -0.1600 
     27 H1         -8.5491   53.7547   32.4517 H         1 <0>         0.1150 
     28 H2          3.1473   64.0722   32.3077 H         1 <0>         0.1150 
     29 H3         -6.9452   52.5764   33.9456 H         1 <0>         0.1150 
     30 H4          0.7312   64.0153   31.7967 H         1 <0>         0.1150 
     31 H5         -7.7491   55.5714   30.9588 H         1 <0>         0.1150 
     32 H6          4.0795   62.6150   34.0719 H         1 <0>         0.1150 
     33 H7         -4.5366   53.2386   33.9410 H         1 <0>         0.1150 
     34 H8         -0.7815   62.4711   33.0727 H         1 <0>         0.1150 
     35 H9         -4.2947   56.6690   30.5738 H         1 <0>         0.3600 
     36 H10        -5.9467   56.8728   30.1160 H         1 <0>         0.3600 
     37 H11         3.7310   60.7433   35.6140 H         1 <0>         0.3600 
     38 H12         2.1725   60.1150   35.9215 H         1 <0>         0.3600 
     39 H13        -3.8472   58.3339   33.4161 H         1 <0>         0.3537 
     40 H14        -4.6717   57.1158   32.5854 H         1 <0>         0.3537 
     41 H15         0.4095   58.2329   32.4503 H         1 <0>         0.3537 
     42 H16         1.1753   59.6568   33.0052 H         1 <0>         0.3537 
@<TRIPOS>BOND
     1    1    3 ar   
     2    1    5 ar   
     3    1   27 1    
     4    2    4 ar   
     5    2    6 ar   
     6    2   28 1    
     7    3    7 ar   
     8    3   29 1    
     9    4    8 ar   
    10    4   30 1    
    11    5   11 ar   
    12    5   31 1    
    13    6   12 ar   
    14    6   32 1    
    15    7   13 ar   
    16    7   33 1    
    17    8   14 ar   
    18    8   34 1    
    19    9   15 1    
    20    9   23 3    
    21   10   16 1    
    22   10   24 3    
    23   11   13 ar   
    24   11   19 1    
    25   12   14 ar   
    26   12   20 1    
    27   13   25 1    
    28   14   26 1    
    29   15   16 1    
    30   15   17 2    
    31   16   18 2    
    32   17   21 1    
    33   17   25 1    
    34   18   22 1    
    35   18   26 1    
    36   19   35 1    
    37   19   36 1    
    38   20   37 1    
    39   20   38 1    
    40   21   39 1    
    41   21   40 1    
    42   22   41 1    
    43   22   42 1    
@<TRIPOS>SUBSTRUCTURE
     1 <0>         1 GROUP             0       ****    0 ROOT    
@<TRIPOS>MOLECULE
mp2k1-ligand
42   43    1
SMALL
USER_CHARGES


@<TRIPOS>ATOM
      1 C1          2.2229   63.1398   33.3575 C.ar      1 <0>        -0.1150 
      2 C2         -6.0882   52.5806   31.1714 C.ar      1 <0>        -0.1150 
      3 C3          1.5464   62.4343   32.3468 C.ar      1 <0>        -0.1150 
      4 C4         -5.9139   52.5181   32.5665 C.ar      1 <0>        -0.1150 
      5 C5          2.6155   62.4724   34.5328 C.ar      1 <0>        -0.1150 
      6 C6         -5.8806   53.7961   30.4913 C.ar      1 <0>        -0.1150 
      7 C7          1.2984   61.0558   32.4961 C.ar      1 <0>        -0.1150 
      8 C8         -5.5354   53.6724   33.2784 C.ar      1 <0>        -0.1150 
      9 C9         -0.2421   56.1900   33.7290 C.1       1 <0>         0.5600 
     10 C10        -2.9389   57.8526   35.3784 C.1       1 <0>         0.5600 
     11 C11         2.3317   61.1105   34.7113 C.ar      1 <0>         0.1800 
     12 C12        -5.5006   54.9499   31.2057 C.ar      1 <0>         0.1800 
     13 C13         1.6985   60.3963   33.6755 C.ar      1 <0>         0.1525 
     14 C14        -5.3372   54.8959   32.6084 C.ar      1 <0>         0.1525 
     15 C15        -0.9747   57.3806   34.0093 C.2       1 <0>         0.0000 
     16 C16        -2.4065   57.2535   34.2008 C.2       1 <0>         0.0000 
     17 C17        -0.3197   58.5523   34.1371 C.2       1 <0>         0.0255 
     18 C18        -3.1876   56.5807   33.3263 C.2       1 <0>         0.0255 
     19 N1          2.7312   60.4722   35.8844 N.pl3     1 <0>        -0.9000 
     20 N2         -5.2688   56.1339   30.5141 N.pl3     1 <0>        -0.9000 
     21 N3         -0.8891   59.7675   34.4805 N.pl3     1 <0>        -0.7254 
     22 N4         -2.7290   56.0253   32.1470 N.pl3     1 <0>        -0.7254 
     23 N5          0.3312   55.2021   33.5462 N.1       1 <0>        -0.5600 
     24 N6         -3.2691   58.4014   36.3434 N.1       1 <0>        -0.5600 
     25 S1          1.4210   58.6646   33.8492 S.3       1 <0>        -0.1600 
     26 S2         -4.9362   56.3578   33.5461 S.3       1 <0>        -0.1600 
     27 H1          2.4363   64.1923   33.2349 H         1 <0>         0.1150 
     28 H2         -6.3769   51.6960   30.6235 H         1 <0>         0.1150 
     29 H3          1.2443   62.9500   31.4499 H         1 <0>         0.1150 
     30 H4         -6.0686   51.5862   33.0918 H         1 <0>         0.1150 
     31 H5          3.1314   63.0193   35.3028 H         1 <0>         0.1150 
     32 H6         -6.0068   53.8390   29.4191 H         1 <0>         0.1150 
     33 H7          0.8098   60.5026   31.7071 H         1 <0>         0.1150 
     34 H8         -5.4063   53.6187   34.3460 H         1 <0>         0.1150 
     35 H9          2.6923   59.4635   35.9188 H         1 <0>         0.3600 
     36 H10         3.4299   60.9014   36.4715 H         1 <0>         0.3600 
     37 H11        -5.9498   56.3718   29.7991 H         1 <0>         0.3600 
     38 H12        -5.0861   56.9488   31.0845 H         1 <0>         0.3600 
     39 H13        -1.8748   59.9675   34.3454 H         1 <0>         0.3537 
     40 H14        -0.3193   60.6004   34.5327 H         1 <0>         0.3537 
     41 H15        -1.8588   56.3622   31.7577 H         1 <0>         0.3537 
     42 H16        -3.4206   55.8181   31.4314 H         1 <0>         0.3537 
@<TRIPOS>BOND
     1    1    3 ar   
     2    1    5 ar   
     3    1   27 1    
     4    2    4 ar   
     5    2    6 ar   
     6    2   28 1    
     7    3    7 ar   
     8    3   29 1    
     9    4    8 ar   
    10    4   30 1    
    11    5   11 ar   
    12    5   31 1    
    13    6   12 ar   
    14    6   32 1    
    15    7   13 ar   
    16    7   33 1    
    17    8   14 ar   
    18    8   34 1    
    19    9   15 1    
    20    9   23 3    
    21   10   16 1    
    22   10   24 3    
    23   11   13 ar   
    24   11   19 1    
    25   12   14 ar   
    26   12   20 1    
    27   13   25 1    
    28   14   26 1    
    29   15   16 1    
    30   15   17 2    
    31   16   18 2    
    32   17   21 1    
    33   17   25 1    
    34   18   22 1    
    35   18   26 1    
    36   19   35 1    
    37   19   36 1    
    38   20   37 1    
    39   20   38 1    
    40   21   39 1    
    41   21   40 1    
    42   22   41 1    
    43   22   42 1    
@<TRIPOS>SUBSTRUCTURE
     1 <0>         1 GROUP             0       ****    0 ROOT    
