@<TRIPOS>MOLECULE
nos1-ligand
36   35    1
SMALL
USER_CHARGES


@<TRIPOS>ATOM
      1 C1         -3.3757    7.8926   60.3547 C.3       1 <0>        -0.1800 
      2 C2         -3.8460    6.8176   61.3389 C.3       1 <0>        -0.0500 
      3 C3         -4.4177    2.3991   61.1537 C.3       1 <0>        -0.0500 
      4 C4         -4.7688    3.1732   59.8766 C.3       1 <0>        -0.1200 
      5 C5         -3.8679    7.3203   62.7872 C.3       1 <0>         0.1430 
      6 C6         -5.1066    2.9788   62.4053 C.3       1 <0>         0.1430 
      7 C7         -4.3930    2.4553   58.5575 C.3       1 <0>         0.0625 
      8 C8         -4.8573    3.2332   57.3158 C.2       1 <0>         0.4450 
      9 C9         -4.7762    5.1031   63.7539 C.cat     1 <0>         0.6939 
     10 N1         -2.9421    2.2272   58.4239 N.4       1 <0>         0.2475 
     11 N2         -5.1344    4.5204   64.9013 N.pl3     1 <0>        -0.9138 
     12 N3         -4.4536    6.4116   63.7984 N.pl3     1 <0>        -0.5282 
     13 N4         -4.7280    4.3816   62.6208 N.pl3     1 <0>        -0.5282 
     14 O1         -5.6383    4.2025   57.4575 O.co2     1 <0>        -0.7225 
     15 O2         -4.4393    2.8126   56.2161 O.co2     1 <0>        -0.7225 
     16 H1         -3.3985    7.5210   59.3298 H         1 <0>         0.0600 
     17 H2         -4.0104    8.7762   60.4034 H         1 <0>         0.0600 
     18 H3         -2.3538    8.2046   60.5745 H         1 <0>         0.0600 
     19 H4         -3.1770    5.9648   61.2467 H         1 <0>         0.0600 
     20 H5         -4.8394    6.4660   61.0687 H         1 <0>         0.0600 
     21 H6         -4.7340    1.3660   61.0043 H         1 <0>         0.0600 
     22 H7         -3.3376    2.3722   61.3026 H         1 <0>         0.0600 
     23 H8         -4.3199    4.1670   59.9020 H         1 <0>         0.0600 
     24 H9         -5.8500    3.3194   59.8863 H         1 <0>         0.0600 
     25 H10        -4.4425    8.2333   62.8324 H         1 <0>         0.0600 
     26 H11        -2.8637    7.6148   63.0936 H         1 <0>         0.0600 
     27 H12        -6.1898    2.9178   62.3070 H         1 <0>         0.0600 
     28 H13        -4.8419    2.3970   63.2828 H         1 <0>         0.0600 
     29 H14        -4.8847    1.4820   58.5277 H         1 <0>         0.0600 
     30 H15        -2.7875    1.8117   57.5143 H         1 <0>         0.2100 
     31 H16        -2.4591    3.1118   58.4592 H         1 <0>         0.2100 
     32 H17        -2.6078    1.6089   59.1473 H         1 <0>         0.2100 
     33 H18        -5.1773    5.0348   65.7699 H         1 <0>         0.4600 
     34 H19        -5.1486    3.5056   64.9643 H         1 <0>         0.4600 
     35 H20        -4.5806    6.8650   64.6906 H         1 <0>         0.3451 
     36 H21        -4.5403    4.9022   61.7774 H         1 <0>         0.3451 
@<TRIPOS>BOND
     1    1    2 1    
     2    1   16 1    
     3    1   17 1    
     4    1   18 1    
     5    2    5 1    
     6    2   19 1    
     7    2   20 1    
     8    3    4 1    
     9    3    6 1    
    10    3   21 1    
    11    3   22 1    
    12    4    7 1    
    13    4   23 1    
    14    4   24 1    
    15    5   12 1    
    16    5   25 1    
    17    5   26 1    
    18    6   13 1    
    19    6   27 1    
    20    6   28 1    
    21    7    8 1    
    22    7   10 1    
    23    7   29 1    
    24    8   14 1    
    25    8   15 2    
    26    9   11 ar   
    27    9   12 ar   
    28    9   13 ar   
    29   10   30 1    
    30   10   31 1    
    31   10   32 1    
    32   11   33 1    
    33   11   34 1    
    34   12   35 1    
    35   13   36 1    
@<TRIPOS>SUBSTRUCTURE
     1 <0>         1 GROUP             0       ****    0 ROOT    
@<TRIPOS>MOLECULE
nos1-ligand
36   35    1
SMALL
USER_CHARGES


@<TRIPOS>ATOM
      1 C1         -5.0098    7.3057   64.1138 C.3       1 <0>        -0.1800 
      2 C2         -4.4363    6.7231   62.8149 C.3       1 <0>        -0.0500 
      3 C3         -1.6590    1.4967   58.8630 C.3       1 <0>        -0.0500 
      4 C4         -2.7533    0.4182   59.0350 C.3       1 <0>        -0.1200 
      5 C5         -4.7077    5.2168   62.6678 C.3       1 <0>         0.1430 
      6 C6         -1.4611    2.3454   60.1224 C.3       1 <0>         0.1430 
      7 C7         -3.6414    0.1926   57.7886 C.3       1 <0>         0.0625 
      8 C8         -4.4407    1.4609   57.4047 C.2       1 <0>         0.4450 
      9 C9         -3.1856    3.6293   61.4386 C.cat     1 <0>         0.6939 
     10 N1         -2.8422   -0.2795   56.6398 N.4       1 <0>         0.2475 
     11 N2         -2.9447    2.9202   62.5455 N.pl3     1 <0>        -0.9138 
     12 N3         -4.0431    4.6662   61.4699 N.pl3     1 <0>        -0.5282 
     13 N4         -2.5557    3.3206   60.2915 N.pl3     1 <0>        -0.5282 
     14 O1         -4.4429    1.8139   56.2042 O.co2     1 <0>        -0.7225 
     15 O2         -5.0312    2.0804   58.3185 O.co2     1 <0>        -0.7225 
     16 H1         -4.8437    8.3819   64.1672 H         1 <0>         0.0600 
     17 H2         -6.0823    7.1298   64.1926 H         1 <0>         0.0600 
     18 H3         -4.5365    6.8597   64.9884 H         1 <0>         0.0600 
     19 H4         -3.3652    6.9202   62.7837 H         1 <0>         0.0600 
     20 H5         -4.8419    7.2560   61.9576 H         1 <0>         0.0600 
     21 H6         -0.7181    1.0156   58.5916 H         1 <0>         0.0600 
     22 H7         -1.8860    2.1659   58.0323 H         1 <0>         0.0600 
     23 H8         -3.4005    0.6760   59.8752 H         1 <0>         0.0600 
     24 H9         -2.2860   -0.5225   59.3294 H         1 <0>         0.0600 
     25 H10        -5.7771    5.0232   62.6046 H         1 <0>         0.0600 
     26 H11        -4.3655    4.7073   63.5673 H         1 <0>         0.0600 
     27 H12        -1.3552    1.6971   60.9906 H         1 <0>         0.0600 
     28 H13        -0.5305    2.9068   60.0403 H         1 <0>         0.0600 
     29 H14        -4.3663   -0.5898   58.0167 H         1 <0>         0.0600 
     30 H15        -3.4676   -0.4458   55.8656 H         1 <0>         0.2100 
     31 H16        -2.2010    0.4511   56.3712 H         1 <0>         0.2100 
     32 H17        -2.3076   -1.1247   56.8327 H         1 <0>         0.2100 
     33 H18        -3.4708    3.1023   63.3876 H         1 <0>         0.4600 
     34 H19        -2.2910    2.1533   62.5216 H         1 <0>         0.4600 
     35 H20        -4.2813    5.1192   60.5993 H         1 <0>         0.3451 
     36 H21        -2.8309    3.8134   59.4525 H         1 <0>         0.3451 
@<TRIPOS>BOND
     1    1    2 1    
     2    1   16 1    
     3    1   17 1    
     4    1   18 1    
     5    2    5 1    
     6    2   19 1    
     7    2   20 1    
     8    3    4 1    
     9    3    6 1    
    10    3   21 1    
    11    3   22 1    
    12    4    7 1    
    13    4   23 1    
    14    4   24 1    
    15    5   12 1    
    16    5   25 1    
    17    5   26 1    
    18    6   13 1    
    19    6   27 1    
    20    6   28 1    
    21    7    8 1    
    22    7   10 1    
    23    7   29 1    
    24    8   14 1    
    25    8   15 2    
    26    9   11 ar   
    27    9   12 ar   
    28    9   13 ar   
    29   10   30 1    
    30   10   31 1    
    31   10   32 1    
    32   11   33 1    
    33   11   34 1    
    34   12   35 1    
    35   13   36 1    
@<TRIPOS>SUBSTRUCTURE
     1 <0>         1 GROUP             0       ****    0 ROOT    
@<TRIPOS>MOLECULE
nos1-ligand
36   35    1
SMALL
USER_CHARGES


@<TRIPOS>ATOM
      1 C1         -4.5792    7.7087   64.6203 C.3       1 <0>        -0.1800 
      2 C2         -5.4537    6.5770   64.0725 C.3       1 <0>        -0.0500 
      3 C3         -2.0360    1.8512   61.5624 C.3       1 <0>        -0.0500 
      4 C4         -1.6524    0.6075   60.7322 C.3       1 <0>        -0.1200 
      5 C5         -4.8792    5.1795   64.3428 C.3       1 <0>         0.1430 
      6 C6         -3.3554    2.5008   61.1308 C.3       1 <0>         0.1430 
      7 C7         -1.2221    0.8505   59.2625 C.3       1 <0>         0.0625 
      8 C8         -0.0226    1.8034   59.1944 C.2       1 <0>         0.4450 
      9 C9         -5.1815    3.2979   62.6806 C.cat     1 <0>         0.6939 
     10 N1         -0.8421   -0.4164   58.6041 N.4       1 <0>         0.2475 
     11 N2         -6.0421    2.3984   62.1980 N.pl3     1 <0>        -0.9138 
     12 N3         -5.6322    4.1406   63.6285 N.pl3     1 <0>        -0.5282 
     13 N4         -3.9221    3.3413   62.2040 N.pl3     1 <0>        -0.5282 
     14 O1          1.1122    1.3206   59.4041 O.co2     1 <0>        -0.7225 
     15 O2         -0.2697    3.0074   58.9681 O.co2     1 <0>        -0.7225 
     16 H1         -5.0442    8.6766   64.4328 H         1 <0>         0.0600 
     17 H2         -4.4419    7.6132   65.6976 H         1 <0>         0.0600 
     18 H3         -3.5962    7.7195   64.1491 H         1 <0>         0.0600 
     19 H4         -5.6012    6.7193   63.0038 H         1 <0>         0.0600 
     20 H5         -6.4418    6.6544   64.5221 H         1 <0>         0.0600 
     21 H6         -2.1010    1.5516   62.6039 H         1 <0>         0.0600 
     22 H7         -1.2380    2.5932   61.5416 H         1 <0>         0.0600 
     23 H8         -2.4787   -0.1051   60.7547 H         1 <0>         0.0600 
     24 H9         -0.8411    0.1204   61.2641 H         1 <0>         0.0600 
     25 H10        -4.9015    4.9532   65.4088 H         1 <0>         0.0600 
     26 H11        -3.8399    5.1492   64.0528 H         1 <0>         0.0600 
     27 H12        -3.2002    3.1104   60.2398 H         1 <0>         0.0600 
     28 H13        -4.0607    1.7203   60.8520 H         1 <0>         0.0600 
     29 H14        -2.0546    1.2748   58.6998 H         1 <0>         0.0600 
     30 H15        -0.5758   -0.2466   57.6419 H         1 <0>         0.2100 
     31 H16        -0.0313   -0.7915   59.0741 H         1 <0>         0.2100 
     32 H17        -1.5978   -1.0841   58.6233 H         1 <0>         0.2100 
     33 H18        -7.0303    2.4977   62.3809 H         1 <0>         0.4600 
     34 H19        -5.7433    1.7598   61.4769 H         1 <0>         0.4600 
     35 H20        -6.6043    4.0758   63.8916 H         1 <0>         0.3451 
     36 H21        -3.3183    4.0715   62.5490 H         1 <0>         0.3451 
@<TRIPOS>BOND
     1    1    2 1    
     2    1   16 1    
     3    1   17 1    
     4    1   18 1    
     5    2    5 1    
     6    2   19 1    
     7    2   20 1    
     8    3    4 1    
     9    3    6 1    
    10    3   21 1    
    11    3   22 1    
    12    4    7 1    
    13    4   23 1    
    14    4   24 1    
    15    5   12 1    
    16    5   25 1    
    17    5   26 1    
    18    6   13 1    
    19    6   27 1    
    20    6   28 1    
    21    7    8 1    
    22    7   10 1    
    23    7   29 1    
    24    8   14 1    
    25    8   15 2    
    26    9   11 ar   
    27    9   12 ar   
    28    9   13 ar   
    29   10   30 1    
    30   10   31 1    
    31   10   32 1    
    32   11   33 1    
    33   11   34 1    
    34   12   35 1    
    35   13   36 1    
@<TRIPOS>SUBSTRUCTURE
     1 <0>         1 GROUP             0       ****    0 ROOT    
@<TRIPOS>MOLECULE
nos1-ligand
36   35    1
SMALL
USER_CHARGES


@<TRIPOS>ATOM
      1 C1          0.7684   -2.6780   51.0561 C.3       1 <0>        -0.1800 
      2 C2          0.3446   -1.2614   50.6612 C.3       1 <0>        -0.0500 
      3 C3         -2.7080    2.3500   55.0414 C.3       1 <0>        -0.0500 
      4 C4         -3.0470    0.9424   55.6010 C.3       1 <0>        -0.1200 
      5 C5          0.1814   -0.3454   51.8749 C.3       1 <0>         0.1430 
      6 C6         -1.2200    2.5825   54.7424 C.3       1 <0>         0.1430 
      7 C7         -2.7910    0.7476   57.1215 C.3       1 <0>         0.0625 
      8 C8         -3.7994    1.4751   58.0357 C.2       1 <0>         0.4450 
      9 C9         -0.9072    1.8555   52.3349 C.cat     1 <0>         0.6939 
     10 N1         -2.8423   -0.6797   57.4903 N.4       1 <0>         0.2475 
     11 N2         -1.5197    2.9203   51.8041 N.pl3     1 <0>        -0.9138 
     12 N3         -0.4581    0.9178   51.4876 N.pl3     1 <0>        -0.5282 
     13 N4         -0.7413    1.7033   53.6645 N.pl3     1 <0>        -0.5282 
     14 O1         -4.7804    2.0652   57.5273 O.co2     1 <0>        -0.7225 
     15 O2         -3.5802    1.3919   59.2638 O.co2     1 <0>        -0.7225 
     16 H1          0.7583   -3.3518   50.2041 H         1 <0>         0.0600 
     17 H2          1.7768   -2.6796   51.4685 H         1 <0>         0.0600 
     18 H3          0.0908   -3.0836   51.8040 H         1 <0>         0.0600 
     19 H4         -0.5944   -1.3057   50.1093 H         1 <0>         0.0600 
     20 H5          1.0889   -0.8269   49.9918 H         1 <0>         0.0600 
     21 H6         -3.2492    2.5202   54.1137 H         1 <0>         0.0600 
     22 H7         -3.0640    3.1255   55.7188 H         1 <0>         0.0600 
     23 H8         -2.5005    0.1856   55.0368 H         1 <0>         0.0600 
     24 H9         -4.0973    0.7271   55.4040 H         1 <0>         0.0600 
     25 H10         1.1478   -0.1449   52.3386 H         1 <0>         0.0600 
     26 H11        -0.4421   -0.8338   52.6239 H         1 <0>         0.0600 
     27 H12        -1.0507    3.6218   54.4557 H         1 <0>         0.0600 
     28 H13        -0.6237    2.4033   55.6375 H         1 <0>         0.0600 
     29 H14        -1.7881    1.1009   57.3653 H         1 <0>         0.0600 
     30 H15        -2.6746   -0.7550   58.4832 H         1 <0>         0.2100 
     31 H16        -3.7603   -1.0458   57.2909 H         1 <0>         0.2100 
     32 H17        -2.1375   -1.2139   56.9799 H         1 <0>         0.2100 
     33 H18        -1.6424    2.9732   50.7894 H         1 <0>         0.4600 
     34 H19        -1.8772    3.6777   52.3768 H         1 <0>         0.4600 
     35 H20        -0.5624    1.0841   50.4956 H         1 <0>         0.3451 
     36 H21        -0.2793    0.8615   53.9815 H         1 <0>         0.3451 
@<TRIPOS>BOND
     1    1    2 1    
     2    1   16 1    
     3    1   17 1    
     4    1   18 1    
     5    2    5 1    
     6    2   19 1    
     7    2   20 1    
     8    3    4 1    
     9    3    6 1    
    10    3   21 1    
    11    3   22 1    
    12    4    7 1    
    13    4   23 1    
    14    4   24 1    
    15    5   12 1    
    16    5   25 1    
    17    5   26 1    
    18    6   13 1    
    19    6   27 1    
    20    6   28 1    
    21    7    8 1    
    22    7   10 1    
    23    7   29 1    
    24    8   14 1    
    25    8   15 2    
    26    9   11 ar   
    27    9   12 ar   
    28    9   13 ar   
    29   10   30 1    
    30   10   31 1    
    31   10   32 1    
    32   11   33 1    
    33   11   34 1    
    34   12   35 1    
    35   13   36 1    
@<TRIPOS>SUBSTRUCTURE
     1 <0>         1 GROUP             0       ****    0 ROOT    
@<TRIPOS>MOLECULE
nos1-ligand
36   35    1
SMALL
USER_CHARGES


@<TRIPOS>ATOM
      1 C1         -5.0764    7.7261   64.2003 C.3       1 <0>        -0.1800 
      2 C2         -4.4574    7.0673   62.9636 C.3       1 <0>        -0.0500 
      3 C3         -2.1689    3.1476   58.0435 C.3       1 <0>        -0.0500 
      4 C4         -1.9021    1.6333   58.0254 C.3       1 <0>        -0.1200 
      5 C5         -4.7660    5.5667   62.8839 C.3       1 <0>         0.1430 
      6 C6         -2.2146    3.7270   59.4693 C.3       1 <0>         0.1430 
      7 C7         -3.1682    0.7481   57.9240 C.3       1 <0>         0.0625 
      8 C8         -4.0265    1.0957   56.7018 C.2       1 <0>         0.4450 
      9 C9         -3.8073    3.7642   61.4172 C.cat     1 <0>         0.6939 
     10 N1         -2.8443   -0.6809   57.8023 N.4       1 <0>         0.2475 
     11 N2         -3.6628    2.9224   62.4498 N.pl3     1 <0>        -0.9138 
     12 N3         -4.3036    5.0007   61.6097 N.pl3     1 <0>        -0.5282 
     13 N4         -3.4405    3.3453   60.1913 N.pl3     1 <0>        -0.5282 
     14 O1         -3.5562    1.8719   55.8408 O.co2     1 <0>        -0.7225 
     15 O2         -5.1287    0.5142   56.6238 O.co2     1 <0>        -0.7225 
     16 H1         -4.8403    8.7902   64.2313 H         1 <0>         0.0600 
     17 H2         -6.1622    7.6268   64.2003 H         1 <0>         0.0600 
     18 H3         -4.6968    7.2766   65.1183 H         1 <0>         0.0600 
     19 H4         -3.3774    7.2210   62.9796 H         1 <0>         0.0600 
     20 H5         -4.8262    7.5688   62.0680 H         1 <0>         0.0600 
     21 H6         -1.3805    3.6604   57.4909 H         1 <0>         0.0600 
     22 H7         -3.0999    3.3700   57.5209 H         1 <0>         0.0600 
     23 H8         -1.3226    1.3529   58.9065 H         1 <0>         0.0600 
     24 H9         -1.2688    1.4216   57.1618 H         1 <0>         0.0600 
     25 H10        -5.8372    5.3896   62.9847 H         1 <0>         0.0600 
     26 H11        -4.2709    5.0480   63.7054 H         1 <0>         0.0600 
     27 H12        -1.3324    3.4330   60.0387 H         1 <0>         0.0600 
     28 H13        -2.1909    4.8158   59.4128 H         1 <0>         0.0600 
     29 H14        -3.7777    0.8889   58.8182 H         1 <0>         0.0600 
     30 H15        -3.7136   -1.1916   57.7307 H         1 <0>         0.2100 
     31 H16        -2.3116   -0.8229   56.9565 H         1 <0>         0.2100 
     32 H17        -2.3229   -0.9947   58.6064 H         1 <0>         0.2100 
     33 H18        -3.9314    3.2142   63.3792 H         1 <0>         0.4600 
     34 H19        -3.3029    1.9886   62.3140 H         1 <0>         0.4600 
     35 H20        -4.3779    5.6139   60.8103 H         1 <0>         0.3451 
     36 H21        -4.0473    2.6983   59.7077 H         1 <0>         0.3451 
@<TRIPOS>BOND
     1    1    2 1    
     2    1   16 1    
     3    1   17 1    
     4    1   18 1    
     5    2    5 1    
     6    2   19 1    
     7    2   20 1    
     8    3    4 1    
     9    3    6 1    
    10    3   21 1    
    11    3   22 1    
    12    4    7 1    
    13    4   23 1    
    14    4   24 1    
    15    5   12 1    
    16    5   25 1    
    17    5   26 1    
    18    6   13 1    
    19    6   27 1    
    20    6   28 1    
    21    7    8 1    
    22    7   10 1    
    23    7   29 1    
    24    8   14 1    
    25    8   15 2    
    26    9   11 ar   
    27    9   12 ar   
    28    9   13 ar   
    29   10   30 1    
    30   10   31 1    
    31   10   32 1    
    32   11   33 1    
    33   11   34 1    
    34   12   35 1    
    35   13   36 1    
@<TRIPOS>SUBSTRUCTURE
     1 <0>         1 GROUP             0       ****    0 ROOT    
@<TRIPOS>MOLECULE
nos1-ligand
36   35    1
SMALL
USER_CHARGES


@<TRIPOS>ATOM
      1 C1         -5.0468    7.8449   64.1997 C.3       1 <0>        -0.1800 
      2 C2         -4.4088    7.1536   62.9908 C.3       1 <0>        -0.0500 
      3 C3         -2.5898    3.2019   58.0144 C.3       1 <0>        -0.0500 
      4 C4         -2.1599    1.7322   57.8736 C.3       1 <0>        -0.1200 
      5 C5         -4.6791    5.6437   62.9702 C.3       1 <0>         0.1430 
      6 C6         -2.6121    3.6781   59.4784 C.3       1 <0>         0.1430 
      7 C7         -3.3149    0.7038   57.9474 C.3       1 <0>         0.0625 
      8 C8         -4.3550    0.9144   56.8405 C.2       1 <0>         0.4450 
      9 C9         -4.2553    3.7408   61.3832 C.cat     1 <0>         0.6939 
     10 N1         -2.8418   -0.6810   57.8050 N.4       1 <0>         0.2475 
     11 N2         -4.6392    2.8281   62.2862 N.pl3     1 <0>        -0.9138 
     12 N3         -4.2601    5.0508   61.6932 N.pl3     1 <0>        -0.5282 
     13 N4         -3.8624    3.3154   60.1676 N.pl3     1 <0>        -0.5282 
     14 O1         -5.1797    0.0019   56.6121 O.co2     1 <0>        -0.7225 
     15 O2         -4.3416    2.0312   56.2823 O.co2     1 <0>        -0.7225 
     16 H1         -4.8377    8.9151   64.1889 H         1 <0>         0.0600 
     17 H2         -6.1298    7.7182   64.2025 H         1 <0>         0.0600 
     18 H3         -4.6579    7.4419   65.1353 H         1 <0>         0.0600 
     19 H4         -3.3330    7.3352   63.0019 H         1 <0>         0.0600 
     20 H5         -4.7882    7.6098   62.0756 H         1 <0>         0.0600 
     21 H6         -1.8976    3.8360   57.4588 H         1 <0>         0.0600 
     22 H7         -3.5696    3.3505   57.5592 H         1 <0>         0.0600 
     23 H8         -1.4052    1.4977   58.6261 H         1 <0>         0.0600 
     24 H9         -1.6700    1.6246   56.9041 H         1 <0>         0.0600 
     25 H10        -5.7393    5.4418   63.1260 H         1 <0>         0.0600 
     26 H11        -4.1327    5.1639   63.7828 H         1 <0>         0.0600 
     27 H12        -1.7518    3.2938   60.0271 H         1 <0>         0.0600 
     28 H13        -2.5264    4.7649   59.5014 H         1 <0>         0.0600 
     29 H14        -3.8196    0.7988   58.9103 H         1 <0>         0.0600 
     30 H15        -3.6465   -1.2907   57.8524 H         1 <0>         0.2100 
     31 H16        -2.4065   -0.7846   56.9000 H         1 <0>         0.2100 
     32 H17        -2.1901   -0.9090   58.5399 H         1 <0>         0.2100 
     33 H18        -4.9385    3.1233   63.2050 H         1 <0>         0.4600 
     34 H19        -4.6508    1.8440   62.0594 H         1 <0>         0.4600 
     35 H20        -3.9530    5.7078   60.9899 H         1 <0>         0.3451 
     36 H21        -4.4658    2.6773   59.6683 H         1 <0>         0.3451 
@<TRIPOS>BOND
     1    1    2 1    
     2    1   16 1    
     3    1   17 1    
     4    1   18 1    
     5    2    5 1    
     6    2   19 1    
     7    2   20 1    
     8    3    4 1    
     9    3    6 1    
    10    3   21 1    
    11    3   22 1    
    12    4    7 1    
    13    4   23 1    
    14    4   24 1    
    15    5   12 1    
    16    5   25 1    
    17    5   26 1    
    18    6   13 1    
    19    6   27 1    
    20    6   28 1    
    21    7    8 1    
    22    7   10 1    
    23    7   29 1    
    24    8   14 1    
    25    8   15 2    
    26    9   11 ar   
    27    9   12 ar   
    28    9   13 ar   
    29   10   30 1    
    30   10   31 1    
    31   10   32 1    
    32   11   33 1    
    33   11   34 1    
    34   12   35 1    
    35   13   36 1    
@<TRIPOS>SUBSTRUCTURE
     1 <0>         1 GROUP             0       ****    0 ROOT    
@<TRIPOS>MOLECULE
nos1-ligand
36   35    1
SMALL
USER_CHARGES


@<TRIPOS>ATOM
      1 C1          1.5875   -0.7858   51.6379 C.3       1 <0>        -0.1800 
      2 C2          0.1333   -0.9251   51.1728 C.3       1 <0>        -0.0500 
      3 C3         -3.0105    1.4303   56.1689 C.3       1 <0>        -0.0500 
      4 C4         -3.0170    0.2653   57.1783 C.3       1 <0>        -0.1200 
      5 C5         -0.6005    0.4204   51.0906 C.3       1 <0>         0.1430 
      6 C6         -1.8699    1.3066   55.1441 C.3       1 <0>         0.1430 
      7 C7         -1.8665    0.2906   58.2162 C.3       1 <0>         0.0625 
      8 C8         -2.2500    1.1038   59.4662 C.2       1 <0>         0.4450 
      9 C9         -1.6545    1.9953   52.7415 C.cat     1 <0>         0.6939 
     10 N1         -1.4988   -1.0797   58.6041 N.4       1 <0>         0.2475 
     11 N2         -1.8944    2.9203   51.8041 N.pl3     1 <0>        -0.9138 
     12 N3         -1.0364    0.8461   52.4250 N.pl3     1 <0>        -0.5282 
     13 N4         -2.0420    2.2309   54.0088 N.pl3     1 <0>        -0.5282 
     14 O1         -2.5711    0.4837   60.5071 O.co2     1 <0>        -0.7225 
     15 O2         -2.2207    2.3481   59.3563 O.co2     1 <0>        -0.7225 
     16 H1          2.0546   -1.7656   51.7399 H         1 <0>         0.0600 
     17 H2          2.1743   -0.2072   50.9244 H         1 <0>         0.0600 
     18 H3          1.6503   -0.2849   52.6046 H         1 <0>         0.0600 
     19 H4         -0.3950   -1.5893   51.8581 H         1 <0>         0.0600 
     20 H5          0.1024   -1.4181   50.2041 H         1 <0>         0.0600 
     21 H6         -3.9652    1.4393   55.6417 H         1 <0>         0.0600 
     22 H7         -2.9455    2.3845   56.6927 H         1 <0>         0.0600 
     23 H8         -2.9944   -0.6713   56.6183 H         1 <0>         0.0600 
     24 H9         -3.9762    0.2551   57.6993 H         1 <0>         0.0600 
     25 H10        -1.4854    0.3245   50.4603 H         1 <0>         0.0600 
     26 H11         0.0326    1.1837   50.6366 H         1 <0>         0.0600 
     27 H12        -0.9023    1.4917   55.6111 H         1 <0>         0.0600 
     28 H13        -1.8498    0.2822   54.7718 H         1 <0>         0.0600 
     29 H14        -0.9684    0.7251   57.7767 H         1 <0>         0.0600 
     30 H15        -0.7177   -1.0487   59.2415 H         1 <0>         0.2100 
     31 H16        -2.2920   -1.5149   59.0546 H         1 <0>         0.2100 
     32 H17        -1.2421   -1.5822   57.7512 H         1 <0>         0.2100 
     33 H18        -1.6421    2.7758   50.8239 H         1 <0>         0.4600 
     34 H19        -2.2646    3.8347   52.0655 H         1 <0>         0.4600 
     35 H20        -0.8451    0.1990   53.1762 H         1 <0>         0.3451 
     36 H21        -2.4521    3.1277   54.2276 H         1 <0>         0.3451 
@<TRIPOS>BOND
     1    1    2 1    
     2    1   16 1    
     3    1   17 1    
     4    1   18 1    
     5    2    5 1    
     6    2   19 1    
     7    2   20 1    
     8    3    4 1    
     9    3    6 1    
    10    3   21 1    
    11    3   22 1    
    12    4    7 1    
    13    4   23 1    
    14    4   24 1    
    15    5   12 1    
    16    5   25 1    
    17    5   26 1    
    18    6   13 1    
    19    6   27 1    
    20    6   28 1    
    21    7    8 1    
    22    7   10 1    
    23    7   29 1    
    24    8   14 1    
    25    8   15 2    
    26    9   11 ar   
    27    9   12 ar   
    28    9   13 ar   
    29   10   30 1    
    30   10   31 1    
    31   10   32 1    
    32   11   33 1    
    33   11   34 1    
    34   12   35 1    
    35   13   36 1    
@<TRIPOS>SUBSTRUCTURE
     1 <0>         1 GROUP             0       ****    0 ROOT    
@<TRIPOS>MOLECULE
nos1-ligand
36   35    1
SMALL
USER_CHARGES


@<TRIPOS>ATOM
      1 C1         -5.0924    7.1929   64.2158 C.3       1 <0>        -0.1800 
      2 C2         -4.5905    6.2587   63.1103 C.3       1 <0>        -0.0500 
      3 C3         -3.3287    1.8455   58.7387 C.3       1 <0>        -0.0500 
      4 C4         -3.3450    0.3135   58.6064 C.3       1 <0>        -0.1200 
      5 C5         -4.5290    4.7948   63.5645 C.3       1 <0>         0.1430 
      6 C6         -3.2206    2.3156   60.2009 C.3       1 <0>         0.1430 
      7 C7         -3.5549   -0.2154   57.1665 C.3       1 <0>         0.0625 
      8 C8         -4.8106    0.3681   56.5079 C.2       1 <0>         0.4450 
      9 C9         -4.8955    2.8639   61.9972 C.cat     1 <0>         0.6939 
     10 N1         -2.4335    0.1211   56.2771 N.4       1 <0>         0.2475 
     11 N2         -6.0423    2.5199   62.5991 N.pl3     1 <0>        -0.9138 
     12 N3         -4.1772    3.9104   62.4457 N.pl3     1 <0>        -0.5282 
     13 N4         -4.4808    2.1368   60.9425 N.pl3     1 <0>        -0.5282 
     14 O1         -4.8415    1.5936   56.2581 O.co2     1 <0>        -0.7225 
     15 O2         -5.7013   -0.4526   56.2046 O.co2     1 <0>        -0.7225 
     16 H1         -5.1246    8.2250   63.8657 H         1 <0>         0.0600 
     17 H2         -6.0975    6.9202   64.5387 H         1 <0>         0.0600 
     18 H3         -4.4378    7.1600   65.0873 H         1 <0>         0.0600 
     19 H4         -3.6011    6.5863   62.7875 H         1 <0>         0.0600 
     20 H5         -5.2431    6.3492   62.2411 H         1 <0>         0.0600 
     21 H6         -2.4780    2.2472   58.1864 H         1 <0>         0.0600 
     22 H7         -4.2196    2.2708   58.2754 H         1 <0>         0.0600 
     23 H8         -4.1047   -0.1033   59.2695 H         1 <0>         0.0600 
     24 H9         -2.3846   -0.0578   58.9686 H         1 <0>         0.0600 
     25 H10        -5.4877    4.4813   63.9788 H         1 <0>         0.0600 
     26 H11        -3.7826    4.6880   64.3522 H         1 <0>         0.0600 
     27 H12        -2.4035    1.8085   60.7147 H         1 <0>         0.0600 
     28 H13        -2.9767    3.3783   60.2169 H         1 <0>         0.0600 
     29 H14        -3.6594   -1.3014   57.1943 H         1 <0>         0.0600 
     30 H15        -2.6444   -0.2449   55.3589 H         1 <0>         0.2100 
     31 H16        -2.3553    1.1259   56.2181 H         1 <0>         0.2100 
     32 H17        -1.5757   -0.2814   56.6223 H         1 <0>         0.2100 
     33 H18        -6.3740    3.0507   63.3923 H         1 <0>         0.4600 
     34 H19        -6.5946    1.7441   62.2628 H         1 <0>         0.4600 
     35 H20        -3.3093    4.1283   61.9768 H         1 <0>         0.3451 
     36 H21        -5.0733    1.3849   60.6198 H         1 <0>         0.3451 
@<TRIPOS>BOND
     1    1    2 1    
     2    1   16 1    
     3    1   17 1    
     4    1   18 1    
     5    2    5 1    
     6    2   19 1    
     7    2   20 1    
     8    3    4 1    
     9    3    6 1    
    10    3   21 1    
    11    3   22 1    
    12    4    7 1    
    13    4   23 1    
    14    4   24 1    
    15    5   12 1    
    16    5   25 1    
    17    5   26 1    
    18    6   13 1    
    19    6   27 1    
    20    6   28 1    
    21    7    8 1    
    22    7   10 1    
    23    7   29 1    
    24    8   14 1    
    25    8   15 2    
    26    9   11 ar   
    27    9   12 ar   
    28    9   13 ar   
    29   10   30 1    
    30   10   31 1    
    31   10   32 1    
    32   11   33 1    
    33   11   34 1    
    34   12   35 1    
    35   13   36 1    
@<TRIPOS>SUBSTRUCTURE
     1 <0>         1 GROUP             0       ****    0 ROOT    
@<TRIPOS>MOLECULE
nos1-ligand
36   35    1
SMALL
USER_CHARGES


@<TRIPOS>ATOM
      1 C1         -4.4423    7.3971   64.2986 C.3       1 <0>        -0.1800 
      2 C2         -5.4890    6.3961   63.8041 C.3       1 <0>        -0.0500 
      3 C3         -2.8037    3.0547   59.3660 C.3       1 <0>        -0.0500 
      4 C4         -2.4045    1.7128   58.7038 C.3       1 <0>        -0.1200 
      5 C5         -5.2112    4.9201   64.1368 C.3       1 <0>         0.1430 
      6 C6         -2.7851    3.0895   60.9053 C.3       1 <0>         0.1430 
      7 C7         -3.1672    0.4237   59.1169 C.3       1 <0>         0.0625 
      8 C8         -4.6943    0.5856   59.1003 C.2       1 <0>         0.4450 
      9 C9         -4.8478    3.1334   62.3853 C.cat     1 <0>         0.6939 
     10 N1         -2.8416   -0.6803   58.1979 N.4       1 <0>         0.2475 
     11 N2         -6.0205    2.5216   62.6041 N.pl3     1 <0>        -0.9138 
     12 N3         -4.4787    4.2433   63.0532 N.pl3     1 <0>        -0.5282 
     13 N4         -4.0622    2.6047   61.4390 N.pl3     1 <0>        -0.5282 
     14 O1         -5.2250    0.9104   58.0173 O.co2     1 <0>        -0.7225 
     15 O2         -5.3017    0.4060   60.1823 O.co2     1 <0>        -0.7225 
     16 H1         -4.7727    8.4161   64.0967 H         1 <0>         0.0600 
     17 H2         -4.2921    7.3207   65.3751 H         1 <0>         0.0600 
     18 H3         -3.4850    7.2634   63.7984 H         1 <0>         0.0600 
     19 H4         -5.5982    6.5121   62.7273 H         1 <0>         0.0600 
     20 H5         -6.4421    6.6819   64.2369 H         1 <0>         0.0600 
     21 H6         -2.1290    3.8283   58.9984 H         1 <0>         0.0600 
     22 H7         -3.7902    3.3520   59.0071 H         1 <0>         0.0600 
     23 H8         -1.3416    1.5488   58.8849 H         1 <0>         0.0600 
     24 H9         -2.4915    1.8444   57.6240 H         1 <0>         0.0600 
     25 H10        -6.1623    4.4138   64.2919 H         1 <0>         0.0600 
     26 H11        -4.6628    4.8235   65.0736 H         1 <0>         0.0600 
     27 H12        -1.9572    2.5055   61.3087 H         1 <0>         0.0600 
     28 H13        -2.6409    4.1182   61.2308 H         1 <0>         0.0600 
     29 H14        -2.8476    0.1249   60.1167 H         1 <0>         0.0600 
     30 H15        -3.2866   -1.5250   58.5371 H         1 <0>         0.2100 
     31 H16        -3.2165   -0.4623   57.2862 H         1 <0>         0.2100 
     32 H17        -1.8444   -0.8268   58.1209 H         1 <0>         0.2100 
     33 H18        -6.7229    2.9949   63.1526 H         1 <0>         0.4600 
     34 H19        -6.2823    1.7537   61.9943 H         1 <0>         0.4600 
     35 H20        -3.6124    4.6799   62.7809 H         1 <0>         0.3451 
     36 H21        -4.4245    1.7702   60.9755 H         1 <0>         0.3451 
@<TRIPOS>BOND
     1    1    2 1    
     2    1   16 1    
     3    1   17 1    
     4    1   18 1    
     5    2    5 1    
     6    2   19 1    
     7    2   20 1    
     8    3    4 1    
     9    3    6 1    
    10    3   21 1    
    11    3   22 1    
    12    4    7 1    
    13    4   23 1    
    14    4   24 1    
    15    5   12 1    
    16    5   25 1    
    17    5   26 1    
    18    6   13 1    
    19    6   27 1    
    20    6   28 1    
    21    7    8 1    
    22    7   10 1    
    23    7   29 1    
    24    8   14 1    
    25    8   15 2    
    26    9   11 ar   
    27    9   12 ar   
    28    9   13 ar   
    29   10   30 1    
    30   10   31 1    
    31   10   32 1    
    32   11   33 1    
    33   11   34 1    
    34   12   35 1    
    35   13   36 1    
@<TRIPOS>SUBSTRUCTURE
     1 <0>         1 GROUP             0       ****    0 ROOT    
@<TRIPOS>MOLECULE
nos1-ligand
36   35    1
SMALL
USER_CHARGES


@<TRIPOS>ATOM
      1 C1         -4.5495    7.3220   64.4363 C.3       1 <0>        -0.1800 
      2 C2         -5.4403    6.2426   63.8133 C.3       1 <0>        -0.0500 
      3 C3         -3.1346    3.0254   58.9602 C.3       1 <0>        -0.0500 
      4 C4         -2.5243    1.7530   58.3493 C.3       1 <0>        -0.1200 
      5 C5         -4.8868    4.8288   64.0327 C.3       1 <0>         0.1430 
      6 C6         -3.0381    3.0535   60.4966 C.3       1 <0>         0.1430 
      7 C7         -3.4094    0.4874   58.4569 C.3       1 <0>         0.0625 
      8 C8         -4.7508    0.6504   57.7321 C.2       1 <0>         0.4450 
      9 C9         -4.9056    3.1281   62.1816 C.cat     1 <0>         0.6939 
     10 N1         -2.7678   -0.6967   57.8668 N.4       1 <0>         0.2475 
     11 N2         -6.0359    2.5607   62.6246 N.pl3     1 <0>        -0.9138 
     12 N3         -4.4261    4.2412   62.7677 N.pl3     1 <0>        -0.5282 
     13 N4         -4.2638    2.5565   61.1451 N.pl3     1 <0>        -0.5282 
     14 O1         -4.8460    1.5183   56.8362 O.co2     1 <0>        -0.7225 
     15 O2         -5.6477   -0.1570   58.0526 O.co2     1 <0>        -0.7225 
     16 H1         -4.9661    8.3148   64.2640 H         1 <0>         0.0600 
     17 H2         -4.4547    7.1839   65.5137 H         1 <0>         0.0600 
     18 H3         -3.5483    7.3045   64.0048 H         1 <0>         0.0600 
     19 H4         -5.5424    6.4366   62.7445 H         1 <0>         0.0600 
     20 H5         -6.4428    6.3171   64.2365 H         1 <0>         0.0600 
     21 H6         -2.6139    3.9003   58.5685 H         1 <0>         0.0600 
     22 H7         -4.1752    3.1275   58.6502 H         1 <0>         0.0600 
     23 H8         -1.5482    1.5629   58.7986 H         1 <0>         0.0600 
     24 H9         -2.3415    1.9515   57.2915 H         1 <0>         0.0600 
     25 H10        -5.6486    4.1823   64.4695 H         1 <0>         0.0600 
     26 H11        -4.0518    4.8683   64.7329 H         1 <0>         0.0600 
     27 H12        -2.1710    2.4910   60.8437 H         1 <0>         0.0600 
     28 H13        -2.8849    4.0818   60.8256 H         1 <0>         0.0600 
     29 H14        -3.6145    0.2806   59.5086 H         1 <0>         0.0600 
     30 H15        -3.4041   -1.4759   57.9641 H         1 <0>         0.2100 
     31 H16        -2.6092   -0.5252   56.8846 H         1 <0>         0.2100 
     32 H17        -1.8984   -0.8982   58.3363 H         1 <0>         0.2100 
     33 H18        -6.5353    2.9717   63.4009 H         1 <0>         0.4600 
     34 H19        -6.4103    1.7327   62.1840 H         1 <0>         0.4600 
     35 H20        -3.6784    4.7387   62.3052 H         1 <0>         0.3451 
     36 H21        -4.6385    1.6974   60.7682 H         1 <0>         0.3451 
@<TRIPOS>BOND
     1    1    2 1    
     2    1   16 1    
     3    1   17 1    
     4    1   18 1    
     5    2    5 1    
     6    2   19 1    
     7    2   20 1    
     8    3    4 1    
     9    3    6 1    
    10    3   21 1    
    11    3   22 1    
    12    4    7 1    
    13    4   23 1    
    14    4   24 1    
    15    5   12 1    
    16    5   25 1    
    17    5   26 1    
    18    6   13 1    
    19    6   27 1    
    20    6   28 1    
    21    7    8 1    
    22    7   10 1    
    23    7   29 1    
    24    8   14 1    
    25    8   15 2    
    26    9   11 ar   
    27    9   12 ar   
    28    9   13 ar   
    29   10   30 1    
    30   10   31 1    
    31   10   32 1    
    32   11   33 1    
    33   11   34 1    
    34   12   35 1    
    35   13   36 1    
@<TRIPOS>SUBSTRUCTURE
     1 <0>         1 GROUP             0       ****    0 ROOT    
@<TRIPOS>MOLECULE
nos1-ligand
36   35    1
SMALL
USER_CHARGES


@<TRIPOS>ATOM
      1 C1         -5.0855    6.2821   63.9360 C.3       1 <0>        -0.1800 
      2 C2         -5.4910    4.8034   64.0415 C.3       1 <0>        -0.0500 
      3 C3         -2.7599    0.1564   60.3446 C.3       1 <0>        -0.0500 
      4 C4         -1.6550   -0.2120   59.3276 C.3       1 <0>        -0.1200 
      5 C5         -4.6183    3.8371   63.2295 C.3       1 <0>         0.1430 
      6 C6         -3.7795    1.1969   59.8482 C.3       1 <0>         0.1430 
      7 C7         -0.8329    0.9711   58.7414 C.3       1 <0>         0.0625 
      8 C8         -0.5268    2.0745   59.7630 C.2       1 <0>         0.4450 
      9 C9         -4.1428    3.5192   60.7810 C.cat     1 <0>         0.6939 
     10 N1          0.4596    0.5204   58.2048 N.4       1 <0>         0.2475 
     11 N2         -3.9143    4.1208   59.6073 N.pl3     1 <0>        -0.9138 
     12 N3         -4.4419    4.2880   61.8406 N.pl3     1 <0>        -0.5282 
     13 N4         -4.0711    2.1810   60.9043 N.pl3     1 <0>        -0.5282 
     14 O1         -0.0422    1.7304   60.8633 O.co2     1 <0>        -0.7225 
     15 O2         -0.7804    3.2488   59.4159 O.co2     1 <0>        -0.7225 
     16 H1         -5.6890    6.8969   64.6033 H         1 <0>         0.0600 
     17 H2         -4.0423    6.4354   64.2021 H         1 <0>         0.0600 
     18 H3         -5.2327    6.6683   62.9275 H         1 <0>         0.0600 
     19 H4         -6.5275    4.6810   63.7420 H         1 <0>         0.0600 
     20 H5         -5.4477    4.5054   65.0897 H         1 <0>         0.0600 
     21 H6         -3.2990   -0.7495   60.6048 H         1 <0>         0.0600 
     22 H7         -2.3076    0.4778   61.2843 H         1 <0>         0.0600 
     23 H8         -2.1079   -0.7632   58.5017 H         1 <0>         0.0600 
     24 H9         -0.9785   -0.9228   59.8030 H         1 <0>         0.0600 
     25 H10        -5.0867    2.8536   63.2395 H         1 <0>         0.0600 
     26 H11        -3.6422    3.7201   63.6984 H         1 <0>         0.0600 
     27 H12        -3.4065    1.7078   58.9633 H         1 <0>         0.0600 
     28 H13        -4.7055    0.7067   59.5452 H         1 <0>         0.0600 
     29 H14        -1.3908    1.4038   57.9088 H         1 <0>         0.0600 
     30 H15         0.9251    1.3036   57.7737 H         1 <0>         0.2100 
     31 H16         1.0233    0.1849   58.9721 H         1 <0>         0.2100 
     32 H17         0.3589   -0.2258   57.5182 H         1 <0>         0.2100 
     33 H18        -3.9318    5.1265   59.5338 H         1 <0>         0.4600 
     34 H19        -3.4900    3.5903   58.8591 H         1 <0>         0.4600 
     35 H20        -4.4916    5.2874   61.7060 H         1 <0>         0.3451 
     36 H21        -4.2264    1.7981   61.8247 H         1 <0>         0.3451 
@<TRIPOS>BOND
     1    1    2 1    
     2    1   16 1    
     3    1   17 1    
     4    1   18 1    
     5    2    5 1    
     6    2   19 1    
     7    2   20 1    
     8    3    4 1    
     9    3    6 1    
    10    3   21 1    
    11    3   22 1    
    12    4    7 1    
    13    4   23 1    
    14    4   24 1    
    15    5   12 1    
    16    5   25 1    
    17    5   26 1    
    18    6   13 1    
    19    6   27 1    
    20    6   28 1    
    21    7    8 1    
    22    7   10 1    
    23    7   29 1    
    24    8   14 1    
    25    8   15 2    
    26    9   11 ar   
    27    9   12 ar   
    28    9   13 ar   
    29   10   30 1    
    30   10   31 1    
    31   10   32 1    
    32   11   33 1    
    33   11   34 1    
    34   12   35 1    
    35   13   36 1    
@<TRIPOS>SUBSTRUCTURE
     1 <0>         1 GROUP             0       ****    0 ROOT    
@<TRIPOS>MOLECULE
nos1-ligand
36   35    1
SMALL
USER_CHARGES


@<TRIPOS>ATOM
      1 C1         -4.6482    7.3606   64.6066 C.3       1 <0>        -0.1800 
      2 C2         -4.9727    5.9647   64.0608 C.3       1 <0>        -0.0500 
      3 C3         -3.9067    0.4957   59.9713 C.3       1 <0>        -0.0500 
      4 C4         -2.7887   -0.1866   59.1577 C.3       1 <0>        -0.1200 
      5 C5         -4.6200    5.8311   62.5764 C.3       1 <0>         0.1430 
      6 C6         -4.3633    1.8761   59.4740 C.3       1 <0>         0.1430 
      7 C7         -1.5003    0.6310   58.8888 C.3       1 <0>         0.0625 
      8 C8         -1.0876    1.5243   60.0677 C.2       1 <0>         0.4450 
      9 C9         -4.2905    3.8645   61.0331 C.cat     1 <0>         0.6939 
     10 N1         -0.3780   -0.2742   58.6043 N.4       1 <0>         0.2475 
     11 N2         -3.2414    4.4251   60.4209 N.pl3     1 <0>        -0.9138 
     12 N3         -4.8599    4.4664   62.0896 N.pl3     1 <0>        -0.5282 
     13 N4         -4.8121    2.6965   60.6125 N.pl3     1 <0>        -0.5282 
     14 O1         -0.9541    2.7438   59.8277 O.co2     1 <0>        -0.7225 
     15 O2         -0.9466    0.9870   61.1881 O.co2     1 <0>        -0.7225 
     16 H1         -4.7381    7.3881   65.6914 H         1 <0>         0.0600 
     17 H2         -3.6303    7.6586   64.3576 H         1 <0>         0.0600 
     18 H3         -5.3213    8.1153   64.2028 H         1 <0>         0.0600 
     19 H4         -6.0343    5.7599   64.2056 H         1 <0>         0.0600 
     20 H5         -4.4390    5.2065   64.6335 H         1 <0>         0.0600 
     21 H6         -4.7680   -0.1736   59.9966 H         1 <0>         0.0600 
     22 H7         -3.5773    0.5719   61.0041 H         1 <0>         0.0600 
     23 H8         -3.1938   -0.5379   58.2067 H         1 <0>         0.0600 
     24 H9         -2.4989   -1.0798   59.7079 H         1 <0>         0.0600 
     25 H10        -3.5883    6.1193   62.4037 H         1 <0>         0.0600 
     26 H11        -5.2332    6.5167   61.9951 H         1 <0>         0.0600 
     27 H12        -3.5653    2.3906   58.9423 H         1 <0>         0.0600 
     28 H13        -5.1789    1.7681   58.7581 H         1 <0>         0.0600 
     29 H14        -1.6543    1.2526   58.0051 H         1 <0>         0.0600 
     30 H15         0.4425    0.2673   58.3763 H         1 <0>         0.2100 
     31 H16        -0.1891   -0.8273   59.4262 H         1 <0>         0.2100 
     32 H17        -0.5851   -0.8829   57.8195 H         1 <0>         0.2100 
     33 H18        -2.9310    5.3440   60.6943 H         1 <0>         0.4600 
     34 H19        -2.5782    3.8288   59.9203 H         1 <0>         0.4600 
     35 H20        -5.6497    4.0064   62.5174 H         1 <0>         0.3451 
     36 H21        -5.6127    2.3352   61.1081 H         1 <0>         0.3451 
@<TRIPOS>BOND
     1    1    2 1    
     2    1   16 1    
     3    1   17 1    
     4    1   18 1    
     5    2    5 1    
     6    2   19 1    
     7    2   20 1    
     8    3    4 1    
     9    3    6 1    
    10    3   21 1    
    11    3   22 1    
    12    4    7 1    
    13    4   23 1    
    14    4   24 1    
    15    5   12 1    
    16    5   25 1    
    17    5   26 1    
    18    6   13 1    
    19    6   27 1    
    20    6   28 1    
    21    7    8 1    
    22    7   10 1    
    23    7   29 1    
    24    8   14 1    
    25    8   15 2    
    26    9   11 ar   
    27    9   12 ar   
    28    9   13 ar   
    29   10   30 1    
    30   10   31 1    
    31   10   32 1    
    32   11   33 1    
    33   11   34 1    
    34   12   35 1    
    35   13   36 1    
@<TRIPOS>SUBSTRUCTURE
     1 <0>         1 GROUP             0       ****    0 ROOT    
@<TRIPOS>MOLECULE
nos1-ligand
36   35    1
SMALL
USER_CHARGES


@<TRIPOS>ATOM
      1 C1         -5.2254    6.5636   63.9529 C.3       1 <0>        -0.1800 
      2 C2         -4.6330    5.6205   62.8998 C.3       1 <0>        -0.0500 
      3 C3         -1.6414    1.0940   59.3073 C.3       1 <0>        -0.0500 
      4 C4         -2.2882   -0.2490   58.8774 C.3       1 <0>        -0.1200 
      5 C5         -4.5454    4.1702   63.3977 C.3       1 <0>         0.1430 
      6 C6         -2.1080    1.6091   60.6811 C.3       1 <0>         0.1430 
      7 C7         -3.2137   -0.2034   57.6293 C.3       1 <0>         0.0625 
      8 C8         -4.4223    0.7450   57.7841 C.2       1 <0>         0.4450 
      9 C9         -4.3217    2.5694   61.4724 C.cat     1 <0>         0.6939 
     10 N1         -2.4460    0.1203   56.4130 N.4       1 <0>         0.2475 
     11 N2         -5.6374    2.5198   61.2513 N.pl3     1 <0>        -0.9138 
     12 N3         -3.8006    3.3197   62.4559 N.pl3     1 <0>        -0.5282 
     13 N4         -3.5542    1.8294   60.6657 N.pl3     1 <0>        -0.5282 
     14 O1         -5.1844    0.5532   58.7584 O.co2     1 <0>        -0.7225 
     15 O2         -4.5789    1.6580   56.9424 O.co2     1 <0>        -0.7225 
     16 H1         -5.2354    7.5930   63.5951 H         1 <0>         0.0600 
     17 H2         -6.2484    6.2844   64.2017 H         1 <0>         0.0600 
     18 H3         -4.6424    6.5497   64.8734 H         1 <0>         0.0600 
     19 H4         -3.6504    5.9850   62.6002 H         1 <0>         0.0600 
     20 H5         -5.2430    5.6575   61.9984 H         1 <0>         0.0600 
     21 H6         -0.5609    0.9558   59.3493 H         1 <0>         0.0600 
     22 H7         -1.8011    1.8655   58.5550 H         1 <0>         0.0600 
     23 H8         -2.8341   -0.6807   59.7167 H         1 <0>         0.0600 
     24 H9         -1.4929   -0.9690   58.6776 H         1 <0>         0.0600 
     25 H10        -5.5382    3.7593   63.5785 H         1 <0>         0.0600 
     26 H11        -4.0322    4.1419   64.3577 H         1 <0>         0.0600 
     27 H12        -1.8655    0.8907   61.4642 H         1 <0>         0.0600 
     28 H13        -1.5965    2.5399   60.9237 H         1 <0>         0.0600 
     29 H14        -3.6198   -1.2023   57.4656 H         1 <0>         0.0600 
     30 H15        -3.0895    0.1920   55.6386 H         1 <0>         0.2100 
     31 H16        -1.9755    1.0028   56.5385 H         1 <0>         0.2100 
     32 H17        -1.7706   -0.6219   56.2379 H         1 <0>         0.2100 
     33 H18        -6.2732    3.0964   61.7829 H         1 <0>         0.4600 
     34 H19        -5.9853    1.9491   60.4856 H         1 <0>         0.4600 
     35 H20        -2.7966    3.3185   62.5546 H         1 <0>         0.3451 
     36 H21        -4.0535    1.2992   59.9489 H         1 <0>         0.3451 
@<TRIPOS>BOND
     1    1    2 1    
     2    1   16 1    
     3    1   17 1    
     4    1   18 1    
     5    2    5 1    
     6    2   19 1    
     7    2   20 1    
     8    3    4 1    
     9    3    6 1    
    10    3   21 1    
    11    3   22 1    
    12    4    7 1    
    13    4   23 1    
    14    4   24 1    
    15    5   12 1    
    16    5   25 1    
    17    5   26 1    
    18    6   13 1    
    19    6   27 1    
    20    6   28 1    
    21    7    8 1    
    22    7   10 1    
    23    7   29 1    
    24    8   14 1    
    25    8   15 2    
    26    9   11 ar   
    27    9   12 ar   
    28    9   13 ar   
    29   10   30 1    
    30   10   31 1    
    31   10   32 1    
    32   11   33 1    
    33   11   34 1    
    34   12   35 1    
    35   13   36 1    
@<TRIPOS>SUBSTRUCTURE
     1 <0>         1 GROUP             0       ****    0 ROOT    
@<TRIPOS>MOLECULE
nos1-ligand
36   35    1
SMALL
USER_CHARGES


@<TRIPOS>ATOM
      1 C1         -5.2319    6.5088   63.9796 C.3       1 <0>        -0.1800 
      2 C2         -4.6280    5.6159   62.8881 C.3       1 <0>        -0.0500 
      3 C3         -1.6443    1.0914   59.2462 C.3       1 <0>        -0.0500 
      4 C4         -2.2939   -0.2508   58.8196 C.3       1 <0>        -0.1200 
      5 C5         -4.5233    4.1536   63.3464 C.3       1 <0>         0.1430 
      6 C6         -2.1110    1.6084   60.6184 C.3       1 <0>         0.1430 
      7 C7         -3.2167   -0.2025   57.5701 C.3       1 <0>         0.0625 
      8 C8         -4.4209    0.7530   57.7206 C.2       1 <0>         0.4450 
      9 C9         -4.3253    2.5651   61.4039 C.cat     1 <0>         0.6939 
     10 N1         -2.4421    0.1204   56.3578 N.4       1 <0>         0.2475 
     11 N2         -5.6420    2.5196   61.1862 N.pl3     1 <0>        -0.9138 
     12 N3         -3.7931    3.3203   62.3772 N.pl3     1 <0>        -0.5282 
     13 N4         -3.5597    1.8167   60.6050 N.pl3     1 <0>        -0.5282 
     14 O1         -4.5570    1.6811   56.8915 O.co2     1 <0>        -0.7225 
     15 O2         -5.1923    0.5604   58.6878 O.co2     1 <0>        -0.7225 
     16 H1         -5.2406    7.5563   63.6834 H         1 <0>         0.0600 
     17 H2         -6.2558    6.2142   64.2042 H         1 <0>         0.0600 
     18 H3         -4.6606    6.4459   64.9045 H         1 <0>         0.0600 
     19 H4         -3.6482    6.0016   62.6025 H         1 <0>         0.0600 
     20 H5         -5.2420    5.6743   61.9898 H         1 <0>         0.0600 
     21 H6         -0.5626    0.9549   59.2869 H         1 <0>         0.0600 
     22 H7         -1.8065    1.8630   58.4921 H         1 <0>         0.0600 
     23 H8         -2.8423   -0.6800   59.6585 H         1 <0>         0.0600 
     24 H9         -1.4994   -0.9727   58.6227 H         1 <0>         0.0600 
     25 H10        -5.5117    3.7348   63.5371 H         1 <0>         0.0600 
     26 H11        -3.9882    4.1170   64.2959 H         1 <0>         0.0600 
     27 H12        -1.8566    0.8982   61.4062 H         1 <0>         0.0600 
     28 H13        -1.6088    2.5479   60.8504 H         1 <0>         0.0600 
     29 H14        -3.6246   -1.2019   57.4122 H         1 <0>         0.0600 
     30 H15        -3.0783    0.1674   55.5760 H         1 <0>         0.2100 
     31 H16        -1.9904    1.0144   56.4739 H         1 <0>         0.2100 
     32 H17        -1.7527   -0.6132   56.2042 H         1 <0>         0.2100 
     33 H18        -6.2742    3.1097   61.7066 H         1 <0>         0.4600 
     34 H19        -5.9904    1.9473   60.4226 H         1 <0>         0.4600 
     35 H20        -2.7873    3.3211   62.4606 H         1 <0>         0.3451 
     36 H21        -4.0585    1.2820   59.8900 H         1 <0>         0.3451 
@<TRIPOS>BOND
     1    1    2 1    
     2    1   16 1    
     3    1   17 1    
     4    1   18 1    
     5    2    5 1    
     6    2   19 1    
     7    2   20 1    
     8    3    4 1    
     9    3    6 1    
    10    3   21 1    
    11    3   22 1    
    12    4    7 1    
    13    4   23 1    
    14    4   24 1    
    15    5   12 1    
    16    5   25 1    
    17    5   26 1    
    18    6   13 1    
    19    6   27 1    
    20    6   28 1    
    21    7    8 1    
    22    7   10 1    
    23    7   29 1    
    24    8   14 1    
    25    8   15 2    
    26    9   11 ar   
    27    9   12 ar   
    28    9   13 ar   
    29   10   30 1    
    30   10   31 1    
    31   10   32 1    
    32   11   33 1    
    33   11   34 1    
    34   12   35 1    
    35   13   36 1    
@<TRIPOS>SUBSTRUCTURE
     1 <0>         1 GROUP             0       ****    0 ROOT    
@<TRIPOS>MOLECULE
nos1-ligand
36   35    1
SMALL
USER_CHARGES


@<TRIPOS>ATOM
      1 C1         -4.4423    7.3728   64.3690 C.3       1 <0>        -0.1800 
      2 C2         -5.2733    6.3292   63.6179 C.3       1 <0>        -0.0500 
      3 C3         -3.2243    2.7000   58.7639 C.3       1 <0>        -0.0500 
      4 C4         -2.7459    1.3048   58.2756 C.3       1 <0>        -0.1200 
      5 C5         -4.8610    4.8681   63.8671 C.3       1 <0>         0.1430 
      6 C6         -3.1802    2.9433   60.2854 C.3       1 <0>         0.1430 
      7 C7         -3.8388    0.2340   57.9911 C.3       1 <0>         0.0625 
      8 C8         -4.7922    0.5559   56.8282 C.2       1 <0>         0.4450 
      9 C9         -4.9579    3.0846   62.0662 C.cat     1 <0>         0.6939 
     10 N1         -3.2417   -1.0737   57.6625 N.4       1 <0>         0.2475 
     11 N2         -6.0421    2.5203   62.6026 N.pl3     1 <0>        -0.9138 
     12 N3         -4.4420    4.1959   62.6216 N.pl3     1 <0>        -0.5282 
     13 N4         -4.4144    2.5197   60.9688 N.pl3     1 <0>        -0.5282 
     14 O1         -5.6418   -0.3227   56.5646 O.co2     1 <0>        -0.7225 
     15 O2         -4.6783    1.6374   56.2128 O.co2     1 <0>        -0.7225 
     16 H1         -4.8411    8.3738   64.2047 H         1 <0>         0.0600 
     17 H2         -4.4421    7.1935   65.4441 H         1 <0>         0.0600 
     18 H3         -3.4110    7.3785   64.0196 H         1 <0>         0.0600 
     19 H4         -5.2417    6.5593   62.5529 H         1 <0>         0.0600 
     20 H5         -6.3069    6.4497   63.9321 H         1 <0>         0.0600 
     21 H6         -2.5757    3.4461   58.3037 H         1 <0>         0.0600 
     22 H7         -4.2199    2.9341   58.3896 H         1 <0>         0.0600 
     23 H8         -2.0197    0.9062   58.9850 H         1 <0>         0.0600 
     24 H9         -2.1771    1.4503   57.3553 H         1 <0>         0.0600 
     25 H10        -5.6869    4.3333   64.3344 H         1 <0>         0.0600 
     26 H11        -4.0421    4.8135   64.5828 H         1 <0>         0.0600 
     27 H12        -2.3154    2.4589   60.7402 H         1 <0>         0.0600 
     28 H13        -3.0542    4.0140   60.4470 H         1 <0>         0.0600 
     29 H14        -4.4452    0.0953   58.8863 H         1 <0>         0.0600 
     30 H15        -3.9933   -1.6746   57.3523 H         1 <0>         0.2100 
     31 H16        -2.5599   -0.9954   56.9166 H         1 <0>         0.2100 
     32 H17        -2.8054   -1.4804   58.4762 H         1 <0>         0.2100 
     33 H18        -6.5118    3.0093   63.3502 H         1 <0>         0.4600 
     34 H19        -6.5140    1.7700   62.1208 H         1 <0>         0.4600 
     35 H20        -3.6501    4.6160   62.1580 H         1 <0>         0.3451 
     36 H21        -4.8466    1.6888   60.5937 H         1 <0>         0.3451 
@<TRIPOS>BOND
     1    1    2 1    
     2    1   16 1    
     3    1   17 1    
     4    1   18 1    
     5    2    5 1    
     6    2   19 1    
     7    2   20 1    
     8    3    4 1    
     9    3    6 1    
    10    3   21 1    
    11    3   22 1    
    12    4    7 1    
    13    4   23 1    
    14    4   24 1    
    15    5   12 1    
    16    5   25 1    
    17    5   26 1    
    18    6   13 1    
    19    6   27 1    
    20    6   28 1    
    21    7    8 1    
    22    7   10 1    
    23    7   29 1    
    24    8   14 1    
    25    8   15 2    
    26    9   11 ar   
    27    9   12 ar   
    28    9   13 ar   
    29   10   30 1    
    30   10   31 1    
    31   10   32 1    
    32   11   33 1    
    33   11   34 1    
    34   12   35 1    
    35   13   36 1    
@<TRIPOS>SUBSTRUCTURE
     1 <0>         1 GROUP             0       ****    0 ROOT    
@<TRIPOS>MOLECULE
nos1-ligand
36   35    1
SMALL
USER_CHARGES


@<TRIPOS>ATOM
      1 C1         -5.0957    7.0561   64.2035 C.3       1 <0>        -0.1800 
      2 C2         -4.4418    6.7324   62.8548 C.3       1 <0>        -0.0500 
      3 C3         -1.5289    2.6415   57.7820 C.3       1 <0>        -0.0500 
      4 C4         -2.1563    1.2414   57.9583 C.3       1 <0>        -0.1200 
      5 C5         -4.6047    5.2617   62.4402 C.3       1 <0>         0.1430 
      6 C6         -1.3697    3.5102   59.0444 C.3       1 <0>         0.1430 
      7 C7         -1.4009    0.2931   58.9285 C.3       1 <0>         0.0625 
      8 C8         -1.8895    0.4695   60.3655 C.2       1 <0>         0.4450 
      9 C9         -3.1281    4.1074   60.7524 C.cat     1 <0>         0.6939 
     10 N1         -1.6421   -1.1188   58.6041 N.4       1 <0>         0.2475 
     11 N2         -2.7243    3.2046   61.6541 N.pl3     1 <0>        -0.9138 
     12 N3         -4.0421    5.0309   61.0980 N.pl3     1 <0>        -0.5282 
     13 N4         -2.6184    4.1442   59.5047 N.pl3     1 <0>        -0.5282 
     14 O1         -1.0851    0.9203   61.2082 O.co2     1 <0>        -0.7225 
     15 O2         -3.0782    0.1685   60.6041 O.co2     1 <0>        -0.7225 
     16 H1         -4.9016    8.0907   64.4875 H         1 <0>         0.0600 
     17 H2         -6.1755    6.9191   64.1683 H         1 <0>         0.0600 
     18 H3         -4.7112    6.4186   64.9988 H         1 <0>         0.0600 
     19 H4         -3.3834    6.9828   62.9103 H         1 <0>         0.0600 
     20 H5         -4.8422    7.3832   62.0807 H         1 <0>         0.0600 
     21 H6         -0.5442    2.5217   57.3288 H         1 <0>         0.0600 
     22 H7         -2.1163    3.1920   57.0462 H         1 <0>         0.0600 
     23 H8         -2.1841    0.7754   56.9722 H         1 <0>         0.0600 
     24 H9         -3.2033    1.3502   58.2464 H         1 <0>         0.0600 
     25 H10        -5.6542    4.9811   62.4260 H         1 <0>         0.0600 
     26 H11        -4.1294    4.6225   63.1825 H         1 <0>         0.0600 
     27 H12        -0.8603    2.9849   59.8457 H         1 <0>         0.0600 
     28 H13        -0.6999    4.3336   58.7950 H         1 <0>         0.0600 
     29 H14        -0.3245    0.4600   58.8593 H         1 <0>         0.0600 
     30 H15        -1.0978   -1.6886   59.2327 H         1 <0>         0.2100 
     31 H16        -2.6226   -1.3220   58.7459 H         1 <0>         0.2100 
     32 H17        -1.3726   -1.3354   57.6441 H         1 <0>         0.2100 
     33 H18        -3.1494    3.1689   62.5658 H         1 <0>         0.4600 
     34 H19        -2.1060    2.4271   61.3945 H         1 <0>         0.4600 
     35 H20        -4.3849    5.6580   60.3848 H         1 <0>         0.3451 
     36 H21        -3.0239    4.7986   58.8525 H         1 <0>         0.3451 
@<TRIPOS>BOND
     1    1    2 1    
     2    1   16 1    
     3    1   17 1    
     4    1   18 1    
     5    2    5 1    
     6    2   19 1    
     7    2   20 1    
     8    3    4 1    
     9    3    6 1    
    10    3   21 1    
    11    3   22 1    
    12    4    7 1    
    13    4   23 1    
    14    4   24 1    
    15    5   12 1    
    16    5   25 1    
    17    5   26 1    
    18    6   13 1    
    19    6   27 1    
    20    6   28 1    
    21    7    8 1    
    22    7   10 1    
    23    7   29 1    
    24    8   14 1    
    25    8   15 2    
    26    9   11 ar   
    27    9   12 ar   
    28    9   13 ar   
    29   10   30 1    
    30   10   31 1    
    31   10   32 1    
    32   11   33 1    
    33   11   34 1    
    34   12   35 1    
    35   13   36 1    
@<TRIPOS>SUBSTRUCTURE
     1 <0>         1 GROUP             0       ****    0 ROOT    
@<TRIPOS>MOLECULE
nos1-ligand
36   35    1
SMALL
USER_CHARGES


@<TRIPOS>ATOM
      1 C1         -5.1701    7.4046   64.2041 C.3       1 <0>        -0.1800 
      2 C2         -4.5421    6.6714   63.0143 C.3       1 <0>        -0.0500 
      3 C3         -3.0475    2.5721   58.0875 C.3       1 <0>        -0.0500 
      4 C4         -2.6927    1.0654   58.1916 C.3       1 <0>        -0.1200 
      5 C5         -4.8902    5.1743   63.0173 C.3       1 <0>         0.1430 
      6 C6         -3.2445    3.3502   59.4048 C.3       1 <0>         0.1430 
      7 C7         -1.3372    0.7188   58.8662 C.3       1 <0>         0.0625 
      8 C8         -1.3619    0.8714   60.3944 C.2       1 <0>         0.4450 
      9 C9         -4.7733    3.2595   61.3920 C.cat     1 <0>         0.6939 
     10 N1         -0.9564   -0.6805   58.6041 N.4       1 <0>         0.2475 
     11 N2         -5.6381    2.5212   62.1020 N.pl3     1 <0>        -0.9138 
     12 N3         -4.4197    4.4935   61.8026 N.pl3     1 <0>        -0.5282 
     13 N4         -4.2662    2.7367   60.2644 N.pl3     1 <0>        -0.5282 
     14 O1         -2.3894    0.5026   61.0058 O.co2     1 <0>        -0.7225 
     15 O2         -0.3307    1.3239   60.9334 O.co2     1 <0>        -0.7225 
     16 H1         -4.9172    8.4657   64.1993 H         1 <0>         0.0600 
     17 H2         -6.2564    7.3168   64.1981 H         1 <0>         0.0600 
     18 H3         -4.8142    6.9912   65.1445 H         1 <0>         0.0600 
     19 H4         -3.4676    6.8229   63.0596 H         1 <0>         0.0600 
     20 H5         -4.8424    7.1342   62.0765 H         1 <0>         0.0600 
     21 H6         -2.2683    3.0703   57.5082 H         1 <0>         0.0600 
     22 H7         -3.9536    2.6712   57.4879 H         1 <0>         0.0600 
     23 H8         -2.6620    0.6757   57.1727 H         1 <0>         0.0600 
     24 H9         -3.5139    0.5228   58.6636 H         1 <0>         0.0600 
     25 H10        -5.9717    5.0559   63.0828 H         1 <0>         0.0600 
     26 H11        -4.4583    4.6846   63.8908 H         1 <0>         0.0600 
     27 H12        -2.3083    3.4214   59.9581 H         1 <0>         0.0600 
     28 H13        -3.5475    4.3729   59.1777 H         1 <0>         0.0600 
     29 H14        -0.5573    1.3531   58.4411 H         1 <0>         0.0600 
     30 H15        -0.0337   -0.8451   58.9761 H         1 <0>         0.2100 
     31 H16        -1.6185   -1.2892   59.0650 H         1 <0>         0.2100 
     32 H17        -0.9407   -0.8898   57.6094 H         1 <0>         0.2100 
     33 H18        -6.0112    2.9023   62.9584 H         1 <0>         0.4600 
     34 H19        -5.9188    1.6067   61.7843 H         1 <0>         0.4600 
     35 H20        -3.7418    4.9959   61.2507 H         1 <0>         0.3451 
     36 H21        -4.3859    1.7446   60.1223 H         1 <0>         0.3451 
@<TRIPOS>BOND
     1    1    2 1    
     2    1   16 1    
     3    1   17 1    
     4    1   18 1    
     5    2    5 1    
     6    2   19 1    
     7    2   20 1    
     8    3    4 1    
     9    3    6 1    
    10    3   21 1    
    11    3   22 1    
    12    4    7 1    
    13    4   23 1    
    14    4   24 1    
    15    5   12 1    
    16    5   25 1    
    17    5   26 1    
    18    6   13 1    
    19    6   27 1    
    20    6   28 1    
    21    7    8 1    
    22    7   10 1    
    23    7   29 1    
    24    8   14 1    
    25    8   15 2    
    26    9   11 ar   
    27    9   12 ar   
    28    9   13 ar   
    29   10   30 1    
    30   10   31 1    
    31   10   32 1    
    32   11   33 1    
    33   11   34 1    
    34   12   35 1    
    35   13   36 1    
@<TRIPOS>SUBSTRUCTURE
     1 <0>         1 GROUP             0       ****    0 ROOT    
@<TRIPOS>MOLECULE
nos1-ligand
36   35    1
SMALL
USER_CHARGES


@<TRIPOS>ATOM
      1 C1         -5.1259    7.5933   64.2243 C.3       1 <0>        -0.1800 
      2 C2         -4.4871    6.8434   63.0511 C.3       1 <0>        -0.0500 
      3 C3         -2.3529    2.8918   58.4433 C.3       1 <0>        -0.0500 
      4 C4         -1.8519    1.4386   58.3978 C.3       1 <0>        -0.1200 
      5 C5         -4.8326    5.3488   63.0544 C.3       1 <0>         0.1430 
      6 C6         -2.5081    3.4233   59.8800 C.3       1 <0>         0.1430 
      7 C7         -2.9652    0.3629   58.4180 C.3       1 <0>         0.0625 
      8 C8         -4.0123    0.5864   57.3202 C.2       1 <0>         0.4450 
      9 C9         -4.4420    3.4202   61.4901 C.cat     1 <0>         0.6939 
     10 N1         -2.4376   -0.9934   58.2088 N.4       1 <0>         0.2475 
     11 N2         -5.5296    2.7688   61.9243 N.pl3     1 <0>        -0.9138 
     12 N3         -4.1497    4.6478   61.9590 N.pl3     1 <0>        -0.5282 
     13 N4         -3.6517    2.8162   60.5825 N.pl3     1 <0>        -0.5282 
     14 O1         -5.1519    0.0928   57.4701 O.co2     1 <0>        -0.7225 
     15 O2         -3.6610    1.3149   56.3690 O.co2     1 <0>        -0.7225 
     16 H1         -4.8628    8.6511   64.1971 H         1 <0>         0.0600 
     17 H2         -6.2134    7.5207   64.1957 H         1 <0>         0.0600 
     18 H3         -4.7864    7.1929   65.1800 H         1 <0>         0.0600 
     19 H4         -3.4044    6.9714   63.0922 H         1 <0>         0.0600 
     20 H5         -4.8152    7.2967   62.1149 H         1 <0>         0.0600 
     21 H6         -1.6472    3.5343   57.9150 H         1 <0>         0.0600 
     22 H7         -3.3000    2.9781   57.9096 H         1 <0>         0.0600 
     23 H8         -1.1538    1.2660   59.2185 H         1 <0>         0.0600 
     24 H9         -1.2785    1.3175   57.4769 H         1 <0>         0.0600 
     25 H10        -5.9087    5.2037   62.9543 H         1 <0>         0.0600 
     26 H11        -4.5307    4.9064   64.0042 H         1 <0>         0.0600 
     27 H12        -1.5912    3.2769   60.4516 H         1 <0>         0.0600 
     28 H13        -2.6762    4.5001   59.8457 H         1 <0>         0.0600 
     29 H14        -3.4739    0.3903   59.3832 H         1 <0>         0.0600 
     30 H15        -3.2174   -1.6361   58.2242 H         1 <0>         0.2100 
     31 H16        -1.9979   -1.0350   57.3009 H         1 <0>         0.2100 
     32 H17        -1.7777   -1.2313   58.9333 H         1 <0>         0.2100 
     33 H18        -6.1380    3.2019   62.6050 H         1 <0>         0.4600 
     34 H19        -5.7642    1.8528   61.5697 H         1 <0>         0.4600 
     35 H20        -3.3919    5.1556   61.5247 H         1 <0>         0.3451 
     36 H21        -3.8394    1.8500   60.3554 H         1 <0>         0.3451 
@<TRIPOS>BOND
     1    1    2 1    
     2    1   16 1    
     3    1   17 1    
     4    1   18 1    
     5    2    5 1    
     6    2   19 1    
     7    2   20 1    
     8    3    4 1    
     9    3    6 1    
    10    3   21 1    
    11    3   22 1    
    12    4    7 1    
    13    4   23 1    
    14    4   24 1    
    15    5   12 1    
    16    5   25 1    
    17    5   26 1    
    18    6   13 1    
    19    6   27 1    
    20    6   28 1    
    21    7    8 1    
    22    7   10 1    
    23    7   29 1    
    24    8   14 1    
    25    8   15 2    
    26    9   11 ar   
    27    9   12 ar   
    28    9   13 ar   
    29   10   30 1    
    30   10   31 1    
    31   10   32 1    
    32   11   33 1    
    33   11   34 1    
    34   12   35 1    
    35   13   36 1    
@<TRIPOS>SUBSTRUCTURE
     1 <0>         1 GROUP             0       ****    0 ROOT    
@<TRIPOS>MOLECULE
nos1-ligand
36   35    1
SMALL
USER_CHARGES


@<TRIPOS>ATOM
      1 C1         -5.1477    5.5378   63.7615 C.3       1 <0>        -0.1800 
      2 C2         -4.5390    4.8752   62.5212 C.3       1 <0>        -0.0500 
      3 C3         -0.9073    2.0518   57.9140 C.3       1 <0>        -0.0500 
      4 C4         -1.4941    0.9511   57.0064 C.3       1 <0>        -0.1200 
      5 C5         -4.1755    3.4054   62.7645 C.3       1 <0>         0.1430 
      6 C6         -0.8385    1.6942   59.4093 C.3       1 <0>         0.1430 
      7 C7         -2.8893    0.3815   57.3627 C.3       1 <0>         0.0625 
      8 C8         -4.0027    1.4436   57.3276 C.2       1 <0>         0.4450 
      9 C9         -2.3713    2.4382   61.2849 C.cat     1 <0>         0.6939 
     10 N1         -3.2431   -0.6797   56.4095 N.4       1 <0>         0.2475 
     11 N2         -1.3932    2.5212   62.1996 N.pl3     1 <0>        -0.9138 
     12 N3         -3.6390    2.7983   61.5425 N.pl3     1 <0>        -0.5282 
     13 N4         -2.1200    2.0116   60.0441 N.pl3     1 <0>        -0.5282 
     14 O1         -4.4181    1.8733   58.4273 O.co2     1 <0>        -0.7225 
     15 O2         -4.4394    1.7973   56.2099 O.co2     1 <0>        -0.7225 
     16 H1         -5.3930    6.5821   63.5657 H         1 <0>         0.0600 
     17 H2         -6.0641    5.0320   64.0666 H         1 <0>         0.0600 
     18 H3         -4.4555    5.5082   64.6022 H         1 <0>         0.0600 
     19 H4         -3.6598    5.4335   62.1972 H         1 <0>         0.0600 
     20 H5         -5.2420    4.9416   61.6928 H         1 <0>         0.0600 
     21 H6          0.0995    2.2851   57.5657 H         1 <0>         0.0600 
     22 H7         -1.4766    2.9728   57.7791 H         1 <0>         0.0600 
     23 H8         -0.7899    0.1211   57.0050 H         1 <0>         0.0600 
     24 H9         -1.5053    1.3219   55.9802 H         1 <0>         0.0600 
     25 H10        -5.0645    2.8485   63.0645 H         1 <0>         0.0600 
     26 H11        -3.4586    3.3206   63.5784 H         1 <0>         0.0600 
     27 H12        -0.5793    0.6459   59.5609 H         1 <0>         0.0600 
     28 H13        -0.0610    2.2932   59.8828 H         1 <0>         0.0600 
     29 H14        -2.8532   -0.0850   58.3482 H         1 <0>         0.0600 
     30 H15        -4.0660   -1.1620   56.7379 H         1 <0>         0.2100 
     31 H16        -3.4429   -0.2424   55.5215 H         1 <0>         0.2100 
     32 H17        -2.4667   -1.3330   56.3094 H         1 <0>         0.2100 
     33 H18        -1.5672    2.9139   63.1124 H         1 <0>         0.4600 
     34 H19        -0.4595    2.2249   61.9608 H         1 <0>         0.4600 
     35 H20        -4.3040    2.6847   60.7862 H         1 <0>         0.3451 
     36 H21        -2.9291    1.9387   59.4224 H         1 <0>         0.3451 
@<TRIPOS>BOND
     1    1    2 1    
     2    1   16 1    
     3    1   17 1    
     4    1   18 1    
     5    2    5 1    
     6    2   19 1    
     7    2   20 1    
     8    3    4 1    
     9    3    6 1    
    10    3   21 1    
    11    3   22 1    
    12    4    7 1    
    13    4   23 1    
    14    4   24 1    
    15    5   12 1    
    16    5   25 1    
    17    5   26 1    
    18    6   13 1    
    19    6   27 1    
    20    6   28 1    
    21    7    8 1    
    22    7   10 1    
    23    7   29 1    
    24    8   14 1    
    25    8   15 2    
    26    9   11 ar   
    27    9   12 ar   
    28    9   13 ar   
    29   10   30 1    
    30   10   31 1    
    31   10   32 1    
    32   11   33 1    
    33   11   34 1    
    34   12   35 1    
    35   13   36 1    
@<TRIPOS>SUBSTRUCTURE
     1 <0>         1 GROUP             0       ****    0 ROOT    
@<TRIPOS>MOLECULE
nos1-ligand
36   35    1
SMALL
USER_CHARGES


@<TRIPOS>ATOM
      1 C1         -5.5024    4.9073   64.2099 C.3       1 <0>        -0.1800 
      2 C2         -4.8602    4.6570   62.8446 C.3       1 <0>        -0.0500 
      3 C3         -1.1549    2.2116   57.5495 C.3       1 <0>        -0.0500 
      4 C4         -1.6790    0.8207   57.1371 C.3       1 <0>        -0.1200 
      5 C5         -4.1066    3.3251   62.7827 C.3       1 <0>         0.1430 
      6 C6         -0.8594    2.3562   59.0522 C.3       1 <0>         0.1430 
      7 C7         -2.9508    0.2896   57.8519 C.3       1 <0>         0.0625 
      8 C8         -4.1900    1.1616   57.5771 C.2       1 <0>         0.4450 
      9 C9         -2.3293    2.7570   61.0766 C.cat     1 <0>         0.6939 
     10 N1         -3.2431   -1.0797   57.4025 N.4       1 <0>         0.2475 
     11 N2         -1.3550    2.5203   61.9672 N.pl3     1 <0>        -0.9138 
     12 N3         -3.5772    3.0950   61.4362 N.pl3     1 <0>        -0.5282 
     13 N4         -2.1004    2.6651   59.7638 N.pl3     1 <0>        -0.5282 
     14 O1         -4.5196    1.9951   58.4511 O.co2     1 <0>        -0.7225 
     15 O2         -4.7995    0.9796   56.5004 O.co2     1 <0>        -0.7225 
     16 H1         -6.0415    5.8550   64.2103 H         1 <0>         0.0600 
     17 H2         -6.2143    4.1203   64.4617 H         1 <0>         0.0600 
     18 H3         -4.7542    4.9442   65.0020 H         1 <0>         0.0600 
     19 H4         -4.1837    5.4792   62.6054 H         1 <0>         0.0600 
     20 H5         -5.6385    4.6669   62.0837 H         1 <0>         0.0600 
     21 H6         -0.2393    2.4139   56.9934 H         1 <0>         0.0600 
     22 H7         -1.8621    2.9787   57.2300 H         1 <0>         0.0600 
     23 H8         -0.8646    0.1165   57.3054 H         1 <0>         0.0600 
     24 H9         -1.8444    0.8163   56.0583 H         1 <0>         0.0600 
     25 H10        -4.7830    2.5063   63.0238 H         1 <0>         0.0600 
     26 H11        -3.3022    3.3201   63.5159 H         1 <0>         0.0600 
     27 H12        -0.4007    1.4513   59.4516 H         1 <0>         0.0600 
     28 H13        -0.1621    3.1780   59.2173 H         1 <0>         0.0600 
     29 H14        -2.7709    0.2236   58.9246 H         1 <0>         0.0600 
     30 H15        -3.7282   -1.5958   58.1247 H         1 <0>         0.2100 
     31 H16        -3.8291   -1.0019   56.5824 H         1 <0>         0.2100 
     32 H17        -2.3720   -1.5441   57.1468 H         1 <0>         0.2100 
     33 H18        -1.5187    2.6414   62.9544 H         1 <0>         0.4600 
     34 H19        -0.4364    2.2577   61.6461 H         1 <0>         0.4600 
     35 H20        -4.2593    3.1593   60.6896 H         1 <0>         0.3451 
     36 H21        -2.9277    2.6913   59.1668 H         1 <0>         0.3451 
@<TRIPOS>BOND
     1    1    2 1    
     2    1   16 1    
     3    1   17 1    
     4    1   18 1    
     5    2    5 1    
     6    2   19 1    
     7    2   20 1    
     8    3    4 1    
     9    3    6 1    
    10    3   21 1    
    11    3   22 1    
    12    4    7 1    
    13    4   23 1    
    14    4   24 1    
    15    5   12 1    
    16    5   25 1    
    17    5   26 1    
    18    6   13 1    
    19    6   27 1    
    20    6   28 1    
    21    7    8 1    
    22    7   10 1    
    23    7   29 1    
    24    8   14 1    
    25    8   15 2    
    26    9   11 ar   
    27    9   12 ar   
    28    9   13 ar   
    29   10   30 1    
    30   10   31 1    
    31   10   32 1    
    32   11   33 1    
    33   11   34 1    
    34   12   35 1    
    35   13   36 1    
@<TRIPOS>SUBSTRUCTURE
     1 <0>         1 GROUP             0       ****    0 ROOT    
@<TRIPOS>MOLECULE
nos1-ligand
36   35    1
SMALL
USER_CHARGES


@<TRIPOS>ATOM
      1 C1         -5.4332    4.8961   64.2088 C.3       1 <0>        -0.1800 
      2 C2         -4.8376    4.6493   62.8231 C.3       1 <0>        -0.0500 
      3 C3         -1.1957    2.2317   57.4441 C.3       1 <0>        -0.0500 
      4 C4         -1.7075    0.8242   57.0712 C.3       1 <0>        -0.1200 
      5 C5         -4.0738    3.3237   62.7371 C.3       1 <0>         0.1430 
      6 C6         -0.8843    2.4201   58.9390 C.3       1 <0>         0.1430 
      7 C7         -2.9634    0.3004   57.8157 C.3       1 <0>         0.0625 
      8 C8         -4.2184    1.1492   57.5360 C.2       1 <0>         0.4450 
      9 C9         -2.3256    2.8108   60.9834 C.cat     1 <0>         0.6939 
     10 N1         -3.2421   -1.0801   57.3998 N.4       1 <0>         0.2475 
     11 N2         -1.3194    2.6265   61.8492 N.pl3     1 <0>        -0.9138 
     12 N3         -3.5771    3.0989   61.3759 N.pl3     1 <0>        -0.5282 
     13 N4         -2.1214    2.7103   59.6672 N.pl3     1 <0>        -0.5282 
     14 O1         -4.5461    2.0012   58.3928 O.co2     1 <0>        -0.7225 
     15 O2         -4.8415    0.9302   56.4743 O.co2     1 <0>        -0.7225 
     16 H1         -5.9532    5.8540   64.2333 H         1 <0>         0.0600 
     17 H2         -6.1524    4.1202   64.4714 H         1 <0>         0.0600 
     18 H3         -4.6603    4.9108   64.9779 H         1 <0>         0.0600 
     19 H4         -4.1727    5.4751   62.5644 H         1 <0>         0.0600 
     20 H5         -5.6400    4.6554   62.0868 H         1 <0>         0.0600 
     21 H6         -0.2899    2.4330   56.8712 H         1 <0>         0.0600 
     22 H7         -1.9170    2.9818   57.1155 H         1 <0>         0.0600 
     23 H8         -0.8894    0.1212   57.2402 H         1 <0>         0.0600 
     24 H9         -1.8891    0.7968   55.9952 H         1 <0>         0.0600 
     25 H10        -4.7354    2.5008   63.0039 H         1 <0>         0.0600 
     26 H11        -3.2501    3.3205   63.4477 H         1 <0>         0.0600 
     27 H12        -0.3944    1.5367   59.3498 H         1 <0>         0.0600 
     28 H13        -0.2064    3.2632   59.0754 H         1 <0>         0.0600 
     29 H14        -2.7679    0.2578   58.8874 H         1 <0>         0.0600 
     30 H15        -3.7245   -1.5840   58.1325 H         1 <0>         0.2100 
     31 H16        -3.8281   -1.0276   56.5777 H         1 <0>         0.2100 
     32 H17        -2.3667   -1.5423   57.1551 H         1 <0>         0.2100 
     33 H18        -1.4618    2.7470   62.8394 H         1 <0>         0.4600 
     34 H19        -0.3992    2.3998   61.5055 H         1 <0>         0.4600 
     35 H20        -4.2823    3.1268   60.6487 H         1 <0>         0.3451 
     36 H21        -2.9602    2.7092   59.0855 H         1 <0>         0.3451 
@<TRIPOS>BOND
     1    1    2 1    
     2    1   16 1    
     3    1   17 1    
     4    1   18 1    
     5    2    5 1    
     6    2   19 1    
     7    2   20 1    
     8    3    4 1    
     9    3    6 1    
    10    3   21 1    
    11    3   22 1    
    12    4    7 1    
    13    4   23 1    
    14    4   24 1    
    15    5   12 1    
    16    5   25 1    
    17    5   26 1    
    18    6   13 1    
    19    6   27 1    
    20    6   28 1    
    21    7    8 1    
    22    7   10 1    
    23    7   29 1    
    24    8   14 1    
    25    8   15 2    
    26    9   11 ar   
    27    9   12 ar   
    28    9   13 ar   
    29   10   30 1    
    30   10   31 1    
    31   10   32 1    
    32   11   33 1    
    33   11   34 1    
    34   12   35 1    
    35   13   36 1    
@<TRIPOS>SUBSTRUCTURE
     1 <0>         1 GROUP             0       ****    0 ROOT    
@<TRIPOS>MOLECULE
nos1-ligand
36   35    1
SMALL
USER_CHARGES


@<TRIPOS>ATOM
      1 C1         -5.2897    4.9191   64.3424 C.3       1 <0>        -0.1800 
      2 C2         -4.7961    4.6815   62.9136 C.3       1 <0>        -0.0500 
      3 C3         -1.1684    2.2212   57.5083 C.3       1 <0>        -0.0500 
      4 C4         -1.6762    0.8136   57.1334 C.3       1 <0>        -0.1200 
      5 C5         -4.0646    3.3427   62.7801 C.3       1 <0>         0.1430 
      6 C6         -0.8683    2.4039   59.0055 C.3       1 <0>         0.1430 
      7 C7         -2.9615    0.2985   57.8342 C.3       1 <0>         0.0625 
      8 C8         -4.1972    1.1672   57.5260 C.2       1 <0>         0.4450 
      9 C9         -2.3258    2.7923   61.0367 C.cat     1 <0>         0.6939 
     10 N1         -3.2421   -1.0803   57.4041 N.4       1 <0>         0.2475 
     11 N2         -1.3481    2.5208   61.9143 N.pl3     1 <0>        -0.9138 
     12 N3         -3.5639    3.1461   61.4171 N.pl3     1 <0>        -0.5282 
     13 N4         -2.1059    2.7188   59.7208 N.pl3     1 <0>        -0.5282 
     14 O1         -4.8398    0.9161   56.4834 O.co2     1 <0>        -0.7225 
     15 O2         -4.4917    2.0698   58.3423 O.co2     1 <0>        -0.7225 
     16 H1         -5.7647    5.8957   64.4313 H         1 <0>         0.0600 
     17 H2         -6.0188    4.1639   64.6376 H         1 <0>         0.0600 
     18 H3         -4.4648    4.8815   65.0546 H         1 <0>         0.0600 
     19 H4         -4.1309    5.4956   62.6202 H         1 <0>         0.0600 
     20 H5         -5.6416    4.7105   62.2266 H         1 <0>         0.0600 
     21 H6         -0.2562    2.4197   56.9448 H         1 <0>         0.0600 
     22 H7         -1.8832    2.9740   57.1717 H         1 <0>         0.0600 
     23 H8         -0.8644    0.1187   57.3507 H         1 <0>         0.0600 
     24 H9         -1.8138    0.7704   56.0514 H         1 <0>         0.0600 
     25 H10        -4.7369    2.5203   63.0218 H         1 <0>         0.0600 
     26 H11        -3.2423    3.3203   63.4917 H         1 <0>         0.0600 
     27 H12        -0.3968    1.5127   59.4218 H         1 <0>         0.0600 
     28 H13        -0.1770    3.2353   59.1481 H         1 <0>         0.0600 
     29 H14        -2.7986    0.2543   58.9110 H         1 <0>         0.0600 
     30 H15        -3.7278   -1.5907   58.1301 H         1 <0>         0.2100 
     31 H16        -3.8259   -1.0180   56.5811 H         1 <0>         0.2100 
     32 H17        -2.3670   -1.5418   57.1569 H         1 <0>         0.2100 
     33 H18        -1.5012    2.6244   62.9050 H         1 <0>         0.4600 
     34 H19        -0.4369    2.2470   61.5800 H         1 <0>         0.4600 
     35 H20        -4.2534    3.2508   60.6835 H         1 <0>         0.3451 
     36 H21        -2.9342    2.7583   59.1247 H         1 <0>         0.3451 
@<TRIPOS>BOND
     1    1    2 1    
     2    1   16 1    
     3    1   17 1    
     4    1   18 1    
     5    2    5 1    
     6    2   19 1    
     7    2   20 1    
     8    3    4 1    
     9    3    6 1    
    10    3   21 1    
    11    3   22 1    
    12    4    7 1    
    13    4   23 1    
    14    4   24 1    
    15    5   12 1    
    16    5   25 1    
    17    5   26 1    
    18    6   13 1    
    19    6   27 1    
    20    6   28 1    
    21    7    8 1    
    22    7   10 1    
    23    7   29 1    
    24    8   14 1    
    25    8   15 2    
    26    9   11 ar   
    27    9   12 ar   
    28    9   13 ar   
    29   10   30 1    
    30   10   31 1    
    31   10   32 1    
    32   11   33 1    
    33   11   34 1    
    34   12   35 1    
    35   13   36 1    
@<TRIPOS>SUBSTRUCTURE
     1 <0>         1 GROUP             0       ****    0 ROOT    
@<TRIPOS>MOLECULE
nos1-ligand
36   35    1
SMALL
USER_CHARGES


@<TRIPOS>ATOM
      1 C1         -5.2420    5.2904   64.0610 C.3       1 <0>        -0.1800 
      2 C2         -4.6570    5.0893   62.6591 C.3       1 <0>        -0.0500 
      3 C3         -0.8117    2.4031   57.6352 C.3       1 <0>        -0.0500 
      4 C4         -1.0771    0.8838   57.6045 C.3       1 <0>        -0.1200 
      5 C5         -4.6216    3.6119   62.2458 C.3       1 <0>         0.1430 
      6 C6         -0.7907    3.0083   59.0481 C.3       1 <0>         0.1430 
      7 C7         -2.4150    0.3891   58.2108 C.3       1 <0>         0.0625 
      8 C8         -3.6454    0.9295   57.4560 C.2       1 <0>         0.4450 
      9 C9         -2.6257    3.2035   60.7751 C.cat     1 <0>         0.6939 
     10 N1         -2.4421   -1.0797   58.2041 N.4       1 <0>         0.2475 
     11 N2         -1.8146    2.9203   61.8040 N.pl3     1 <0>        -0.9138 
     12 N3         -3.9315    3.4547   60.9609 N.pl3     1 <0>        -0.5282 
     13 N4         -2.1597    3.2423   59.5204 N.pl3     1 <0>        -0.5282 
     14 O1         -4.0036    0.3373   56.4149 O.co2     1 <0>        -0.7225 
     15 O2         -4.2229    1.9290   57.9430 O.co2     1 <0>        -0.7225 
     16 H1         -5.2608    6.3477   64.3262 H         1 <0>         0.0600 
     17 H2         -6.2644    4.9160   64.1168 H         1 <0>         0.0600 
     18 H3         -4.6536    4.7668   64.8156 H         1 <0>         0.0600 
     19 H4         -3.6601    5.5247   62.6041 H         1 <0>         0.0600 
     20 H5         -5.2421    5.6545   61.9361 H         1 <0>         0.0600 
     21 H6          0.1512    2.5953   57.1604 H         1 <0>         0.0600 
     22 H7         -1.5462    2.9195   57.0150 H         1 <0>         0.0600 
     23 H8         -0.2530    0.3846   58.1168 H         1 <0>         0.0600 
     24 H9         -1.0112    0.5441   56.5690 H         1 <0>         0.0600 
     25 H10        -5.6384    3.2311   62.1465 H         1 <0>         0.0600 
     26 H11        -4.1336    3.0029   63.0051 H         1 <0>         0.0600 
     27 H12        -0.2466    2.3554   59.7304 H         1 <0>         0.0600 
     28 H13        -0.2711    3.9668   59.0365 H         1 <0>         0.0600 
     29 H14        -2.4855    0.6738   59.2601 H         1 <0>         0.0600 
     30 H15        -3.3547   -1.4168   58.4820 H         1 <0>         0.2100 
     31 H16        -2.2256   -1.4081   57.2639 H         1 <0>         0.2100 
     32 H17        -1.7378   -1.4407   58.8281 H         1 <0>         0.2100 
     33 H18        -2.1750    2.9053   62.7452 H         1 <0>         0.4600 
     34 H19        -0.8332    2.7500   61.6464 H         1 <0>         0.4600 
     35 H20        -4.5028    3.5819   60.1359 H         1 <0>         0.3451 
     36 H21        -2.8559    3.2924   58.7817 H         1 <0>         0.3451 
@<TRIPOS>BOND
     1    1    2 1    
     2    1   16 1    
     3    1   17 1    
     4    1   18 1    
     5    2    5 1    
     6    2   19 1    
     7    2   20 1    
     8    3    4 1    
     9    3    6 1    
    10    3   21 1    
    11    3   22 1    
    12    4    7 1    
    13    4   23 1    
    14    4   24 1    
    15    5   12 1    
    16    5   25 1    
    17    5   26 1    
    18    6   13 1    
    19    6   27 1    
    20    6   28 1    
    21    7    8 1    
    22    7   10 1    
    23    7   29 1    
    24    8   14 1    
    25    8   15 2    
    26    9   11 ar   
    27    9   12 ar   
    28    9   13 ar   
    29   10   30 1    
    30   10   31 1    
    31   10   32 1    
    32   11   33 1    
    33   11   34 1    
    34   12   35 1    
    35   13   36 1    
@<TRIPOS>SUBSTRUCTURE
     1 <0>         1 GROUP             0       ****    0 ROOT    
@<TRIPOS>MOLECULE
nos1-ligand
36   35    1
SMALL
USER_CHARGES


@<TRIPOS>ATOM
      1 C1         -5.5000    4.9205   64.2044 C.3       1 <0>        -0.1800 
      2 C2         -4.7735    4.6940   62.8769 C.3       1 <0>        -0.0500 
      3 C3         -1.0491    2.1343   57.6462 C.3       1 <0>        -0.0500 
      4 C4         -1.6184    0.7683   57.2089 C.3       1 <0>        -0.1200 
      5 C5         -4.0563    3.3416   62.8246 C.3       1 <0>         0.1430 
      6 C6         -0.7749    2.2564   59.1552 C.3       1 <0>         0.1430 
      7 C7         -2.9300    0.2775   57.8767 C.3       1 <0>         0.0625 
      8 C8         -4.1365    1.1914   57.5799 C.2       1 <0>         0.4450 
      9 C9         -2.2575    2.7385   61.1530 C.cat     1 <0>         0.6939 
     10 N1         -3.2421   -1.0800   57.4037 N.4       1 <0>         0.2475 
     11 N2         -1.2948    2.5200   62.0601 N.pl3     1 <0>        -0.9138 
     12 N3         -3.5067    3.0962   61.4888 N.pl3     1 <0>        -0.5282 
     13 N4         -2.0160    2.6062   59.8463 N.pl3     1 <0>        -0.5282 
     14 O1         -4.3689    2.1231   58.3830 O.co2     1 <0>        -0.7225 
     15 O2         -4.8251    0.9421   56.5662 O.co2     1 <0>        -0.7225 
     16 H1         -6.0078    5.8849   64.2040 H         1 <0>         0.0600 
     17 H2         -6.2512    4.1495   64.3747 H         1 <0>         0.0600 
     18 H3         -4.8082    4.9045   65.0469 H         1 <0>         0.0600 
     19 H4         -4.0480    5.4944   62.7168 H         1 <0>         0.0600 
     20 H5         -5.4908    4.7616   62.0604 H         1 <0>         0.0600 
     21 H6         -0.1160    2.3068   57.1089 H         1 <0>         0.0600 
     22 H7         -1.7190    2.9316   57.3203 H         1 <0>         0.0600 
     23 H8         -0.8430    0.0260   57.4007 H         1 <0>         0.0600 
     24 H9         -1.7477    0.7766   56.1253 H         1 <0>         0.0600 
     25 H10        -4.7549    2.5358   63.0482 H         1 <0>         0.0600 
     26 H11        -3.2701    3.3201   63.5758 H         1 <0>         0.0600 
     27 H12        -0.3579    1.3317   59.5553 H         1 <0>         0.0600 
     28 H13        -0.0500    3.0496   59.3392 H         1 <0>         0.0600 
     29 H14        -2.7847    0.1967   58.9537 H         1 <0>         0.0600 
     30 H15        -3.7354   -1.6017   58.1164 H         1 <0>         0.2100 
     31 H16        -3.8290   -0.9779   56.5869 H         1 <0>         0.2100 
     32 H17        -2.3771   -1.5511   57.1390 H         1 <0>         0.2100 
     33 H18        -1.4616    2.6815   63.0409 H         1 <0>         0.4600 
     34 H19        -0.3778    2.2339   61.7541 H         1 <0>         0.4600 
     35 H20        -4.1743    3.1684   60.7308 H         1 <0>         0.3451 
     36 H21        -2.8333    2.6484   59.2340 H         1 <0>         0.3451 
@<TRIPOS>BOND
     1    1    2 1    
     2    1   16 1    
     3    1   17 1    
     4    1   18 1    
     5    2    5 1    
     6    2   19 1    
     7    2   20 1    
     8    3    4 1    
     9    3    6 1    
    10    3   21 1    
    11    3   22 1    
    12    4    7 1    
    13    4   23 1    
    14    4   24 1    
    15    5   12 1    
    16    5   25 1    
    17    5   26 1    
    18    6   13 1    
    19    6   27 1    
    20    6   28 1    
    21    7    8 1    
    22    7   10 1    
    23    7   29 1    
    24    8   14 1    
    25    8   15 2    
    26    9   11 ar   
    27    9   12 ar   
    28    9   13 ar   
    29   10   30 1    
    30   10   31 1    
    31   10   32 1    
    32   11   33 1    
    33   11   34 1    
    34   12   35 1    
    35   13   36 1    
@<TRIPOS>SUBSTRUCTURE
     1 <0>         1 GROUP             0       ****    0 ROOT    
@<TRIPOS>MOLECULE
nos1-ligand
36   35    1
SMALL
USER_CHARGES


@<TRIPOS>ATOM
      1 C1         -5.2028    7.3350   64.2037 C.3       1 <0>        -0.1800 
      2 C2         -4.5385    6.5834   63.0473 C.3       1 <0>        -0.0500 
      3 C3         -2.3522    2.7498   58.4660 C.3       1 <0>        -0.0500 
      4 C4         -2.0795    1.2880   58.0254 C.3       1 <0>        -0.1200 
      5 C5         -4.8417    5.0746   63.0843 C.3       1 <0>         0.1430 
      6 C6         -2.4240    3.0066   59.9839 C.3       1 <0>         0.1430 
      7 C7         -3.0689    0.1915   58.5058 C.3       1 <0>         0.0625 
      8 C8         -4.5339    0.5565   58.2473 C.2       1 <0>         0.4450 
      9 C9         -4.4935    3.1872   61.4495 C.cat     1 <0>         0.6939 
     10 N1         -2.8422   -1.0793   57.8041 N.4       1 <0>         0.2475 
     11 N2         -5.6390    2.5723   61.7659 N.pl3     1 <0>        -0.9138 
     12 N3         -4.1317    4.3503   62.0185 N.pl3     1 <0>        -0.5282 
     13 N4         -3.7261    2.5962   60.5252 N.pl3     1 <0>        -0.5282 
     14 O1         -5.2956    0.5851   59.2400 O.co2     1 <0>        -0.7225 
     15 O2         -4.8566    0.8152   57.0684 O.co2     1 <0>        -0.7225 
     16 H1         -4.9761    8.4007   64.1661 H         1 <0>         0.0600 
     17 H2         -6.2860    7.2195   64.1917 H         1 <0>         0.0600 
     18 H3         -4.8362    6.9653   65.1604 H         1 <0>         0.0600 
     19 H4         -3.4718    6.7754   63.0965 H         1 <0>         0.0600 
     20 H5         -4.8437    7.0056   62.0918 H         1 <0>         0.0600 
     21 H6         -1.5632    3.3784   58.0527 H         1 <0>         0.0600 
     22 H7         -3.2685    3.1088   57.9953 H         1 <0>         0.0600 
     23 H8         -1.0758    1.0102   58.3492 H         1 <0>         0.0600 
     24 H9         -2.0399    1.2742   56.9354 H         1 <0>         0.0600 
     25 H10        -5.9155    4.9163   62.9876 H         1 <0>         0.0600 
     26 H11        -4.5450    4.6514   64.0445 H         1 <0>         0.0600 
     27 H12        -1.6214    2.4886   60.5091 H         1 <0>         0.0600 
     28 H13        -2.2901    4.0719   60.1654 H         1 <0>         0.0600 
     29 H14        -2.9113    0.0091   59.5702 H         1 <0>         0.0600 
     30 H15        -3.3446   -1.8128   58.2902 H         1 <0>         0.2100 
     31 H16        -3.2085   -0.9900   56.8667 H         1 <0>         0.2100 
     32 H17        -1.8599   -1.3162   57.7255 H         1 <0>         0.2100 
     33 H18        -6.2930    3.0152   62.3934 H         1 <0>         0.4600 
     34 H19        -5.9204    1.7559   61.2322 H         1 <0>         0.4600 
     35 H20        -3.2526    4.7524   61.7311 H         1 <0>         0.3451 
     36 H21        -4.1328    1.7736   60.0822 H         1 <0>         0.3451 
@<TRIPOS>BOND
     1    1    2 1    
     2    1   16 1    
     3    1   17 1    
     4    1   18 1    
     5    2    5 1    
     6    2   19 1    
     7    2   20 1    
     8    3    4 1    
     9    3    6 1    
    10    3   21 1    
    11    3   22 1    
    12    4    7 1    
    13    4   23 1    
    14    4   24 1    
    15    5   12 1    
    16    5   25 1    
    17    5   26 1    
    18    6   13 1    
    19    6   27 1    
    20    6   28 1    
    21    7    8 1    
    22    7   10 1    
    23    7   29 1    
    24    8   14 1    
    25    8   15 2    
    26    9   11 ar   
    27    9   12 ar   
    28    9   13 ar   
    29   10   30 1    
    30   10   31 1    
    31   10   32 1    
    32   11   33 1    
    33   11   34 1    
    34   12   35 1    
    35   13   36 1    
@<TRIPOS>SUBSTRUCTURE
     1 <0>         1 GROUP             0       ****    0 ROOT    
@<TRIPOS>MOLECULE
nos1-ligand
36   35    1
SMALL
USER_CHARGES


@<TRIPOS>ATOM
      1 C1         -5.5168    4.8880   64.2064 C.3       1 <0>        -0.1800 
      2 C2         -4.7853    4.6716   62.8799 C.3       1 <0>        -0.0500 
      3 C3         -0.7143    2.1764   57.8410 C.3       1 <0>        -0.0500 
      4 C4         -1.2287    0.7574   57.5218 C.3       1 <0>        -0.1200 
      5 C5         -4.0266    3.3406   62.8343 C.3       1 <0>         0.1430 
      6 C6         -0.5010    2.4494   59.3391 C.3       1 <0>         0.1430 
      7 C7         -2.5479    0.3022   58.1975 C.3       1 <0>         0.0625 
      8 C8         -3.7560    1.1729   57.8022 C.2       1 <0>         0.4450 
      9 C9         -2.1209    2.8155   61.2525 C.cat     1 <0>         0.6939 
     10 N1         -2.8448   -1.0791   57.8042 N.4       1 <0>         0.2475 
     11 N2         -1.2243    2.5202   62.2045 N.pl3     1 <0>        -0.9138 
     12 N3         -3.3919    3.1526   61.5263 N.pl3     1 <0>        -0.5282 
     13 N4         -1.7837    2.7822   59.9604 N.pl3     1 <0>        -0.5282 
     14 O1         -4.2352    1.0173   56.6577 O.co2     1 <0>        -0.7225 
     15 O2         -4.1928    1.9790   58.6552 O.co2     1 <0>        -0.7225 
     16 H1         -6.0513    5.8371   64.1996 H         1 <0>         0.0600 
     17 H2         -6.2478    4.0984   64.3849 H         1 <0>         0.0600 
     18 H3         -4.8243    4.9024   65.0472 H         1 <0>         0.0600 
     19 H4         -4.0913    5.4967   62.7108 H         1 <0>         0.0600 
     20 H5         -5.5086    4.7063   62.0670 H         1 <0>         0.0600 
     21 H6          0.2320    2.3281   57.3200 H         1 <0>         0.0600 
     22 H7         -1.3973    2.9152   57.4179 H         1 <0>         0.0600 
     23 H8         -0.4435    0.0549   57.8039 H         1 <0>         0.0600 
     24 H9         -1.3246    0.6590   56.4392 H         1 <0>         0.0600 
     25 H10        -4.7159    2.5142   63.0041 H         1 <0>         0.0600 
     26 H11        -3.2765    3.3203   63.6235 H         1 <0>         0.0600 
     27 H12        -0.0456    1.5884   59.8291 H         1 <0>         0.0600 
     28 H13         0.1717    3.2968   59.4746 H         1 <0>         0.0600 
     29 H14        -2.4249    0.2928   59.2807 H         1 <0>         0.0600 
     30 H15        -3.4099   -1.0222   56.9685 H         1 <0>         0.2100 
     31 H16        -1.9859   -1.5659   57.5611 H         1 <0>         0.2100 
     32 H17        -3.3586   -1.5719   58.5247 H         1 <0>         0.2100 
     33 H18        -1.4577    2.6166   63.1804 H         1 <0>         0.4600 
     34 H19        -0.2870    2.2566   61.9433 H         1 <0>         0.4600 
     35 H20        -4.0166    3.2306   60.7317 H         1 <0>         0.3451 
     36 H21        -2.5579    2.8629   59.3038 H         1 <0>         0.3451 
@<TRIPOS>BOND
     1    1    2 1    
     2    1   16 1    
     3    1   17 1    
     4    1   18 1    
     5    2    5 1    
     6    2   19 1    
     7    2   20 1    
     8    3    4 1    
     9    3    6 1    
    10    3   21 1    
    11    3   22 1    
    12    4    7 1    
    13    4   23 1    
    14    4   24 1    
    15    5   12 1    
    16    5   25 1    
    17    5   26 1    
    18    6   13 1    
    19    6   27 1    
    20    6   28 1    
    21    7    8 1    
    22    7   10 1    
    23    7   29 1    
    24    8   14 1    
    25    8   15 2    
    26    9   11 ar   
    27    9   12 ar   
    28    9   13 ar   
    29   10   30 1    
    30   10   31 1    
    31   10   32 1    
    32   11   33 1    
    33   11   34 1    
    34   12   35 1    
    35   13   36 1    
@<TRIPOS>SUBSTRUCTURE
     1 <0>         1 GROUP             0       ****    0 ROOT    
@<TRIPOS>MOLECULE
nos1-ligand
36   35    1
SMALL
USER_CHARGES


@<TRIPOS>ATOM
      1 C1         -5.0499    7.3915   64.1839 C.3       1 <0>        -0.1800 
      2 C2         -4.4423    6.7156   62.9497 C.3       1 <0>        -0.0500 
      3 C3         -2.3600    2.8012   58.1802 C.3       1 <0>        -0.0500 
      4 C4         -2.0730    1.3061   57.8729 C.3       1 <0>        -0.1200 
      5 C5         -4.7241    5.2039   62.9234 C.3       1 <0>         0.1430 
      6 C6         -2.4081    3.2083   59.6666 C.3       1 <0>         0.1430 
      7 C7         -3.0609    0.2407   58.4284 C.3       1 <0>         0.0625 
      8 C8         -4.5274    0.5934   58.1686 C.2       1 <0>         0.4450 
      9 C9         -4.3880    3.3533   61.2591 C.cat     1 <0>         0.6939 
     10 N1         -2.8421   -1.0735   57.8042 N.4       1 <0>         0.2475 
     11 N2         -5.4784    2.6914   61.6583 N.pl3     1 <0>        -0.9138 
     12 N3         -4.0422    4.5332   61.8040 N.pl3     1 <0>        -0.5282 
     13 N4         -3.6681    2.7820   60.2859 N.pl3     1 <0>        -0.5282 
     14 O1         -5.2742    0.6827   59.1698 O.co2     1 <0>        -0.7225 
     15 O2         -4.8634    0.7897   56.9811 O.co2     1 <0>        -0.7225 
     16 H1         -4.8363    8.4604   64.1965 H         1 <0>         0.0600 
     17 H2         -6.1325    7.2695   64.2036 H         1 <0>         0.0600 
     18 H3         -4.6448    6.9678   65.1022 H         1 <0>         0.0600 
     19 H4         -3.3733    6.9203   62.9266 H         1 <0>         0.0600 
     20 H5         -4.8419    7.1768   62.0479 H         1 <0>         0.0600 
     21 H6         -1.5849    3.3956   57.6955 H         1 <0>         0.0600 
     22 H7         -3.2870    3.1057   57.6924 H         1 <0>         0.0600 
     23 H8         -1.0712    1.0660   58.2315 H         1 <0>         0.0600 
     24 H9         -2.0195    1.2001   56.7883 H         1 <0>         0.0600 
     25 H10        -5.7977    5.0369   62.8519 H         1 <0>         0.0600 
     26 H11        -4.3964    4.7406   63.8549 H         1 <0>         0.0600 
     27 H12        -1.5625    2.7919   60.2146 H         1 <0>         0.0600 
     28 H13        -2.3354    4.2936   59.7384 H         1 <0>         0.0600 
     29 H14        -2.8923    0.1260   59.5007 H         1 <0>         0.0600 
     30 H15        -3.3875   -1.7661   58.3044 H         1 <0>         0.2100 
     31 H16        -3.1519   -1.0311   56.8435 H         1 <0>         0.2100 
     32 H17        -1.8635   -1.3334   57.8066 H         1 <0>         0.2100 
     33 H18        -6.0964    3.0956   62.3450 H         1 <0>         0.4600 
     34 H19        -5.7590    1.8586   61.1493 H         1 <0>         0.4600 
     35 H20        -3.2121    4.9878   61.4555 H         1 <0>         0.3451 
     36 H21        -4.0783    1.9430   59.8783 H         1 <0>         0.3451 
@<TRIPOS>BOND
     1    1    2 1    
     2    1   16 1    
     3    1   17 1    
     4    1   18 1    
     5    2    5 1    
     6    2   19 1    
     7    2   20 1    
     8    3    4 1    
     9    3    6 1    
    10    3   21 1    
    11    3   22 1    
    12    4    7 1    
    13    4   23 1    
    14    4   24 1    
    15    5   12 1    
    16    5   25 1    
    17    5   26 1    
    18    6   13 1    
    19    6   27 1    
    20    6   28 1    
    21    7    8 1    
    22    7   10 1    
    23    7   29 1    
    24    8   14 1    
    25    8   15 2    
    26    9   11 ar   
    27    9   12 ar   
    28    9   13 ar   
    29   10   30 1    
    30   10   31 1    
    31   10   32 1    
    32   11   33 1    
    33   11   34 1    
    34   12   35 1    
    35   13   36 1    
@<TRIPOS>SUBSTRUCTURE
     1 <0>         1 GROUP             0       ****    0 ROOT    
@<TRIPOS>MOLECULE
nos1-ligand
36   35    1
SMALL
USER_CHARGES


@<TRIPOS>ATOM
      1 C1         -5.0962    7.5198   64.2038 C.3       1 <0>        -0.1800 
      2 C2         -4.4424    6.8702   62.9825 C.3       1 <0>        -0.0500 
      3 C3         -2.5639    2.8748   58.0872 C.3       1 <0>        -0.0500 
      4 C4         -2.0827    1.4086   57.9144 C.3       1 <0>        -0.1200 
      5 C5         -4.6832    5.3555   62.9562 C.3       1 <0>         0.1430 
      6 C6         -2.5481    3.4450   59.5201 C.3       1 <0>         0.1430 
      7 C7         -2.8467    0.2876   58.6752 C.3       1 <0>         0.0625 
      8 C8         -4.3706    0.3869   58.5231 C.2       1 <0>         0.4450 
      9 C9         -4.3489    3.4983   61.3153 C.cat     1 <0>         0.6939 
     10 N1         -2.4421   -1.0496   58.2041 N.4       1 <0>         0.2475 
     11 N2         -5.3386    2.7760   61.8459 N.pl3     1 <0>        -0.9138 
     12 N3         -4.0421    4.7145   61.7979 N.pl3     1 <0>        -0.5282 
     13 N4         -3.6946    2.9471   60.2863 N.pl3     1 <0>        -0.5282 
     14 O1         -4.8427    0.3556   57.3666 O.co2     1 <0>        -0.7225 
     15 O2         -5.0333    0.5236   59.5780 O.co2     1 <0>        -0.7225 
     16 H1         -4.9461    8.5987   64.2042 H         1 <0>         0.0600 
     17 H2         -6.1692    7.3293   64.2043 H         1 <0>         0.0600 
     18 H3         -4.6799    7.1271   65.1310 H         1 <0>         0.0600 
     19 H4         -3.3765    7.0963   62.9839 H         1 <0>         0.0600 
     20 H5         -4.8419    7.3199   62.0742 H         1 <0>         0.0600 
     21 H6         -1.9308    3.5105   57.4668 H         1 <0>         0.0600 
     22 H7         -3.5640    2.9837   57.6642 H         1 <0>         0.0600 
     23 H8         -1.0293    1.3579   58.1935 H         1 <0>         0.0600 
     24 H9         -2.1044    1.1809   56.8471 H         1 <0>         0.0600 
     25 H10        -5.7549    5.1632   62.9264 H         1 <0>         0.0600 
     26 H11        -4.3062    4.8924   63.8688 H         1 <0>         0.0600 
     27 H12        -1.6182    3.1986   60.0335 H         1 <0>         0.0600 
     28 H13        -2.6122    4.5322   59.4718 H         1 <0>         0.0600 
     29 H14        -2.5896    0.3428   59.7344 H         1 <0>         0.0600 
     30 H15        -2.9828   -1.7465   58.7043 H         1 <0>         0.2100 
     31 H16        -2.6339   -1.1358   57.2145 H         1 <0>         0.2100 
     32 H17        -1.4533   -1.2014   58.3434 H         1 <0>         0.2100 
     33 H18        -5.8894    3.1456   62.6054 H         1 <0>         0.4600 
     34 H19        -5.5952    1.8973   61.4062 H         1 <0>         0.4600 
     35 H20        -3.2790    5.2199   61.3727 H         1 <0>         0.3451 
     36 H21        -4.0548    2.0454   59.9740 H         1 <0>         0.3451 
@<TRIPOS>BOND
     1    1    2 1    
     2    1   16 1    
     3    1   17 1    
     4    1   18 1    
     5    2    5 1    
     6    2   19 1    
     7    2   20 1    
     8    3    4 1    
     9    3    6 1    
    10    3   21 1    
    11    3   22 1    
    12    4    7 1    
    13    4   23 1    
    14    4   24 1    
    15    5   12 1    
    16    5   25 1    
    17    5   26 1    
    18    6   13 1    
    19    6   27 1    
    20    6   28 1    
    21    7    8 1    
    22    7   10 1    
    23    7   29 1    
    24    8   14 1    
    25    8   15 2    
    26    9   11 ar   
    27    9   12 ar   
    28    9   13 ar   
    29   10   30 1    
    30   10   31 1    
    31   10   32 1    
    32   11   33 1    
    33   11   34 1    
    34   12   35 1    
    35   13   36 1    
@<TRIPOS>SUBSTRUCTURE
     1 <0>         1 GROUP             0       ****    0 ROOT    
@<TRIPOS>MOLECULE
nos1-ligand
36   35    1
SMALL
USER_CHARGES


@<TRIPOS>ATOM
      1 C1         -5.0077    7.6131   64.1320 C.3       1 <0>        -0.1800 
      2 C2         -4.4063    7.0295   62.8497 C.3       1 <0>        -0.0500 
      3 C3         -2.1774    3.1582   57.7358 C.3       1 <0>        -0.0500 
      4 C4         -1.9231    1.6458   57.6240 C.3       1 <0>        -0.1200 
      5 C5         -4.6247    5.5152   62.7376 C.3       1 <0>         0.1430 
      6 C6         -2.1465    3.6612   59.1907 C.3       1 <0>         0.1430 
      7 C7         -3.1130    0.7503   58.0473 C.3       1 <0>         0.0625 
      8 C8         -4.3881    1.0612   57.2544 C.2       1 <0>         0.4450 
      9 C9         -3.7126    3.7868   61.1565 C.cat     1 <0>         0.6939 
     10 N1         -2.8405   -0.6793   57.8379 N.4       1 <0>         0.2475 
     11 N2         -3.5159    2.9032   62.1446 N.pl3     1 <0>        -0.9138 
     12 N3         -4.1907    5.0160   61.4260 N.pl3     1 <0>        -0.5282 
     13 N4         -3.4164    3.4169   59.8961 N.pl3     1 <0>        -0.5282 
     14 O1         -5.2232    0.1462   57.0801 O.co2     1 <0>        -0.7225 
     15 O2         -4.5305    2.2470   56.8900 O.co2     1 <0>        -0.7225 
     16 H1         -4.8367    8.6887   64.1854 H         1 <0>         0.0600 
     17 H2         -6.0842    7.4453   64.1766 H         1 <0>         0.0600 
     18 H3         -4.5595    7.1630   65.0183 H         1 <0>         0.0600 
     19 H4         -3.3383    7.2507   62.8231 H         1 <0>         0.0600 
     20 H5         -4.8460    7.5314   61.9870 H         1 <0>         0.0600 
     21 H6         -1.4143    3.6959   57.1716 H         1 <0>         0.0600 
     22 H7         -3.1320    3.4124   57.2738 H         1 <0>         0.0600 
     23 H8         -1.0351    1.3801   58.2000 H         1 <0>         0.0600 
     24 H9         -1.6881    1.4284   56.5804 H         1 <0>         0.0600 
     25 H10        -5.6767    5.2677   62.8828 H         1 <0>         0.0600 
     26 H11        -4.0589    5.0059   63.5183 H         1 <0>         0.0600 
     27 H12        -1.3163    3.2163   59.7401 H         1 <0>         0.0600 
     28 H13        -1.9702    4.7373   59.1925 H         1 <0>         0.0600 
     29 H14        -3.3241    0.9099   59.1061 H         1 <0>         0.0600 
     30 H15        -3.6597   -1.1971   58.1247 H         1 <0>         0.2100 
     31 H16        -2.6809   -0.8393   56.8539 H         1 <0>         0.2100 
     32 H17        -2.0400   -0.9692   58.3784 H         1 <0>         0.2100 
     33 H18        -3.7312    3.1578   63.0984 H         1 <0>         0.4600 
     34 H19        -3.1692    1.9745   61.9514 H         1 <0>         0.4600 
     35 H20        -4.2711    5.6736   60.6633 H         1 <0>         0.3451 
     36 H21        -4.1168    2.9133   59.3705 H         1 <0>         0.3451 
@<TRIPOS>BOND
     1    1    2 1    
     2    1   16 1    
     3    1   17 1    
     4    1   18 1    
     5    2    5 1    
     6    2   19 1    
     7    2   20 1    
     8    3    4 1    
     9    3    6 1    
    10    3   21 1    
    11    3   22 1    
    12    4    7 1    
    13    4   23 1    
    14    4   24 1    
    15    5   12 1    
    16    5   25 1    
    17    5   26 1    
    18    6   13 1    
    19    6   27 1    
    20    6   28 1    
    21    7    8 1    
    22    7   10 1    
    23    7   29 1    
    24    8   14 1    
    25    8   15 2    
    26    9   11 ar   
    27    9   12 ar   
    28    9   13 ar   
    29   10   30 1    
    30   10   31 1    
    31   10   32 1    
    32   11   33 1    
    33   11   34 1    
    34   12   35 1    
    35   13   36 1    
@<TRIPOS>SUBSTRUCTURE
     1 <0>         1 GROUP             0       ****    0 ROOT    
@<TRIPOS>MOLECULE
nos1-ligand
36   35    1
SMALL
USER_CHARGES


@<TRIPOS>ATOM
      1 C1         -4.8635    7.3971   63.8220 C.3       1 <0>        -0.1800 
      2 C2         -4.3408    6.7731   62.5242 C.3       1 <0>        -0.0500 
      3 C3         -2.3427    3.1716   57.4972 C.3       1 <0>        -0.0500 
      4 C4         -2.0707    1.6779   57.2528 C.3       1 <0>        -0.1200 
      5 C5         -4.5634    5.2562   62.4734 C.3       1 <0>         0.1430 
      6 C6         -2.0507    3.6005   58.9468 C.3       1 <0>         0.1430 
      7 C7         -2.9659    0.7097   58.0640 C.3       1 <0>         0.0625 
      8 C8         -4.4542    1.0625   57.9560 C.2       1 <0>         0.4450 
      9 C9         -3.3284    3.5398   61.1139 C.cat     1 <0>         0.6939 
     10 N1         -2.8422   -0.6825   57.6080 N.4       1 <0>         0.2475 
     11 N2         -2.9241    2.8761   62.2056 N.pl3     1 <0>        -0.9138 
     12 N3         -4.0247    4.6860   61.2315 N.pl3     1 <0>        -0.5282 
     13 N4         -3.0173    3.0362   59.9045 N.pl3     1 <0>        -0.5282 
     14 O1         -4.8360    1.7592   56.9896 O.co2     1 <0>        -0.7225 
     15 O2         -5.1996    0.5627   58.8241 O.co2     1 <0>        -0.7225 
     16 H1         -4.6912    8.4738   63.8308 H         1 <0>         0.0600 
     17 H2         -5.9350    7.2313   63.9376 H         1 <0>         0.0600 
     18 H3         -4.3612    6.9751   64.6929 H         1 <0>         0.0600 
     19 H4         -3.2767    6.9930   62.4253 H         1 <0>         0.0600 
     20 H5         -4.8333    7.2478   61.6746 H         1 <0>         0.0600 
     21 H6         -1.7163    3.7669   56.8314 H         1 <0>         0.0600 
     22 H7         -3.3745    3.4115   57.2382 H         1 <0>         0.0600 
     23 H8         -1.0188    1.4608   57.4456 H         1 <0>         0.0600 
     24 H9         -2.2343    1.4836   56.1911 H         1 <0>         0.0600 
     25 H10        -5.6262    5.0220   62.5415 H         1 <0>         0.0600 
     26 H11        -4.0706    4.7862   63.3250 H         1 <0>         0.0600 
     27 H12        -1.0331    3.3354   59.2350 H         1 <0>         0.0600 
     28 H13        -2.1132    4.6869   59.0169 H         1 <0>         0.0600 
     29 H14        -2.6818    0.7545   59.1168 H         1 <0>         0.0600 
     30 H15        -3.4586   -1.2505   58.1726 H         1 <0>         0.2100 
     31 H16        -3.1393   -0.7369   56.6446 H         1 <0>         0.2100 
     32 H17        -1.8907   -1.0025   57.7039 H         1 <0>         0.2100 
     33 H18        -3.1459    3.2344   63.1240 H         1 <0>         0.4600 
     34 H19        -2.4118    2.0093   62.1281 H         1 <0>         0.4600 
     35 H20        -4.2097    5.2190   60.3935 H         1 <0>         0.3451 
     36 H21        -3.4735    2.1837   59.6119 H         1 <0>         0.3451 
@<TRIPOS>BOND
     1    1    2 1    
     2    1   16 1    
     3    1   17 1    
     4    1   18 1    
     5    2    5 1    
     6    2   19 1    
     7    2   20 1    
     8    3    4 1    
     9    3    6 1    
    10    3   21 1    
    11    3   22 1    
    12    4    7 1    
    13    4   23 1    
    14    4   24 1    
    15    5   12 1    
    16    5   25 1    
    17    5   26 1    
    18    6   13 1    
    19    6   27 1    
    20    6   28 1    
    21    7    8 1    
    22    7   10 1    
    23    7   29 1    
    24    8   14 1    
    25    8   15 2    
    26    9   11 ar   
    27    9   12 ar   
    28    9   13 ar   
    29   10   30 1    
    30   10   31 1    
    31   10   32 1    
    32   11   33 1    
    33   11   34 1    
    34   12   35 1    
    35   13   36 1    
@<TRIPOS>SUBSTRUCTURE
     1 <0>         1 GROUP             0       ****    0 ROOT    
@<TRIPOS>MOLECULE
nos1-ligand
36   35    1
SMALL
USER_CHARGES


@<TRIPOS>ATOM
      1 C1         -4.5163    7.2662   64.3782 C.3       1 <0>        -0.1800 
      2 C2         -5.4587    6.2206   63.7779 C.3       1 <0>        -0.0500 
      3 C3         -2.6783    3.0275   59.0853 C.3       1 <0>        -0.0500 
      4 C4         -2.2827    1.6751   58.4339 C.3       1 <0>        -0.1200 
      5 C5         -5.0650    4.7510   64.0085 C.3       1 <0>         0.1430 
      6 C6         -2.8279    3.0255   60.6182 C.3       1 <0>         0.1430 
      7 C7         -3.4077    0.6268   58.1985 C.3       1 <0>         0.0625 
      8 C8         -4.4415    1.0016   57.1179 C.2       1 <0>         0.4450 
      9 C9         -4.8746    3.0979   62.0929 C.cat     1 <0>         0.6939 
     10 N1         -2.8419   -0.6797   57.8042 N.4       1 <0>         0.2475 
     11 N2         -6.0420    2.5202   62.3886 N.pl3     1 <0>        -0.9138 
     12 N3         -4.4421    4.1516   62.8119 N.pl3     1 <0>        -0.5282 
     13 N4         -4.1656    2.5995   61.0599 N.pl3     1 <0>        -0.5282 
     14 O1         -5.2425    0.0987   56.7939 O.co2     1 <0>        -0.7225 
     15 O2         -4.4439    2.1508   56.6264 O.co2     1 <0>        -0.7225 
     16 H1         -4.8944    8.2725   64.1980 H         1 <0>         0.0600 
     17 H2         -4.4418    7.1478   65.4583 H         1 <0>         0.0600 
     18 H3         -3.5233    7.2115   63.9379 H         1 <0>         0.0600 
     19 H4         -5.5529    6.4138   62.7105 H         1 <0>         0.0600 
     20 H5         -6.4420    6.3857   64.2041 H         1 <0>         0.0600 
     21 H6         -1.8932    3.7453   58.8438 H         1 <0>         0.0600 
     22 H7         -3.5769    3.4439   58.6330 H         1 <0>         0.0600 
     23 H8         -1.4889    1.2260   59.0318 H         1 <0>         0.0600 
     24 H9         -1.8165    1.8897   57.4705 H         1 <0>         0.0600 
     25 H10        -5.9550    4.1852   64.2811 H         1 <0>         0.0600 
     26 H11        -4.3893    4.6561   64.8580 H         1 <0>         0.0600 
     27 H12        -2.0657    2.4028   61.0863 H         1 <0>         0.0600 
     28 H13        -2.6581    4.0410   60.9725 H         1 <0>         0.0600 
     29 H14        -3.9485    0.4640   59.1303 H         1 <0>         0.0600 
     30 H15        -3.6138   -1.3045   57.6151 H         1 <0>         0.2100 
     31 H16        -2.2852   -0.5977   56.9629 H         1 <0>         0.2100 
     32 H17        -2.2695   -1.0645   58.5399 H         1 <0>         0.2100 
     33 H18        -6.6547    2.9807   63.0451 H         1 <0>         0.4600 
     34 H19        -6.4102    1.7833   61.8042 H         1 <0>         0.4600 
     35 H20        -3.5919    4.5994   62.5056 H         1 <0>         0.3451 
     36 H21        -4.5573    1.8268   60.5434 H         1 <0>         0.3451 
@<TRIPOS>BOND
     1    1    2 1    
     2    1   16 1    
     3    1   17 1    
     4    1   18 1    
     5    2    5 1    
     6    2   19 1    
     7    2   20 1    
     8    3    4 1    
     9    3    6 1    
    10    3   21 1    
    11    3   22 1    
    12    4    7 1    
    13    4   23 1    
    14    4   24 1    
    15    5   12 1    
    16    5   25 1    
    17    5   26 1    
    18    6   13 1    
    19    6   27 1    
    20    6   28 1    
    21    7    8 1    
    22    7   10 1    
    23    7   29 1    
    24    8   14 1    
    25    8   15 2    
    26    9   11 ar   
    27    9   12 ar   
    28    9   13 ar   
    29   10   30 1    
    30   10   31 1    
    31   10   32 1    
    32   11   33 1    
    33   11   34 1    
    34   12   35 1    
    35   13   36 1    
@<TRIPOS>SUBSTRUCTURE
     1 <0>         1 GROUP             0       ****    0 ROOT    
@<TRIPOS>MOLECULE
nos1-ligand
36   35    1
SMALL
USER_CHARGES


@<TRIPOS>ATOM
      1 C1         -5.1435    7.7096   64.2398 C.3       1 <0>        -0.1800 
      2 C2         -4.5316    6.8972   63.0994 C.3       1 <0>        -0.0500 
      3 C3         -3.3793    2.7149   58.3831 C.3       1 <0>        -0.0500 
      4 C4         -2.8292    1.2882   58.1142 C.3       1 <0>        -0.1200 
      5 C5         -4.9282    5.4190   63.1932 C.3       1 <0>         0.1430 
      6 C6         -3.1591    3.2483   59.8060 C.3       1 <0>         0.1430 
      7 C7         -3.8777    0.2105   57.7113 C.3       1 <0>         0.0625 
      8 C8         -4.7214    0.5374   56.4763 C.2       1 <0>         0.4450 
      9 C9         -4.7361    3.3726   61.7629 C.cat     1 <0>         0.6939 
     10 N1         -3.2424   -1.0797   57.4122 N.4       1 <0>         0.2475 
     11 N2         -5.6423    2.7265   62.5012 N.pl3     1 <0>        -0.9138 
     12 N3         -4.4131    4.6417   62.0589 N.pl3     1 <0>        -0.5282 
     13 N4         -4.1733    2.7197   60.7313 N.pl3     1 <0>        -0.5282 
     14 O1         -4.4426    1.5578   55.8115 O.co2     1 <0>        -0.7225 
     15 O2         -5.6328   -0.2789   56.2041 O.co2     1 <0>        -0.7225 
     16 H1         -4.8434    8.7559   64.2040 H         1 <0>         0.0600 
     17 H2         -6.2318    7.6690   64.2021 H         1 <0>         0.0600 
     18 H3         -4.8368    7.3203   65.2097 H         1 <0>         0.0600 
     19 H4         -3.4489    7.0048   63.1359 H         1 <0>         0.0600 
     20 H5         -4.8419    7.3136   62.1414 H         1 <0>         0.0600 
     21 H6         -2.9145    3.4064   57.6783 H         1 <0>         0.0600 
     22 H7         -4.4462    2.7690   58.1609 H         1 <0>         0.0600 
     23 H8         -2.2849    0.9391   58.9937 H         1 <0>         0.0600 
     24 H9         -2.0760    1.3586   57.3265 H         1 <0>         0.0600 
     25 H10        -6.0146    5.3253   63.2162 H         1 <0>         0.0600 
     26 H11        -4.5522    4.9832   64.1203 H         1 <0>         0.0600 
     27 H12        -2.1559    3.0198   60.1705 H         1 <0>         0.0600 
     28 H13        -3.2439    4.3350   59.7803 H         1 <0>         0.0600 
     29 H14        -4.5609    0.0551   58.5471 H         1 <0>         0.0600 
     30 H15        -3.9668   -1.7005   57.0804 H         1 <0>         0.2100 
     31 H16        -2.5357   -0.9935   56.6919 H         1 <0>         0.2100 
     32 H17        -2.8207   -1.4686   58.2420 H         1 <0>         0.2100 
     33 H18        -6.0656    3.2039   63.2829 H         1 <0>         0.4600 
     34 H19        -5.9796    1.8219   62.2096 H         1 <0>         0.4600 
     35 H20        -3.7315    5.1087   61.4766 H         1 <0>         0.3451 
     36 H21        -4.4200    1.7543   60.5824 H         1 <0>         0.3451 
@<TRIPOS>BOND
     1    1    2 1    
     2    1   16 1    
     3    1   17 1    
     4    1   18 1    
     5    2    5 1    
     6    2   19 1    
     7    2   20 1    
     8    3    4 1    
     9    3    6 1    
    10    3   21 1    
    11    3   22 1    
    12    4    7 1    
    13    4   23 1    
    14    4   24 1    
    15    5   12 1    
    16    5   25 1    
    17    5   26 1    
    18    6   13 1    
    19    6   27 1    
    20    6   28 1    
    21    7    8 1    
    22    7   10 1    
    23    7   29 1    
    24    8   14 1    
    25    8   15 2    
    26    9   11 ar   
    27    9   12 ar   
    28    9   13 ar   
    29   10   30 1    
    30   10   31 1    
    31   10   32 1    
    32   11   33 1    
    33   11   34 1    
    34   12   35 1    
    35   13   36 1    
@<TRIPOS>SUBSTRUCTURE
     1 <0>         1 GROUP             0       ****    0 ROOT    
@<TRIPOS>MOLECULE
nos1-ligand
36   35    1
SMALL
USER_CHARGES


@<TRIPOS>ATOM
      1 C1         -5.0739    7.8102   64.2063 C.3       1 <0>        -0.1800 
      2 C2         -4.4406    7.0759   63.0204 C.3       1 <0>        -0.0500 
      3 C3         -2.7951    3.2060   58.0793 C.3       1 <0>        -0.0500 
      4 C4         -2.2834    1.7612   57.9548 C.3       1 <0>        -0.1200 
      5 C5         -4.7396    5.5714   63.0366 C.3       1 <0>         0.1430 
      6 C6         -2.8378    3.6988   59.5374 C.3       1 <0>         0.1430 
      7 C7         -3.3836    0.6727   57.9976 C.3       1 <0>         0.0625 
      8 C8         -4.4406    0.8684   56.9041 C.2       1 <0>         0.4450 
      9 C9         -4.5014    3.6569   61.4250 C.cat     1 <0>         0.6939 
     10 N1         -2.8411   -0.6800   57.8037 N.4       1 <0>         0.2475 
     11 N2         -5.2417    2.8452   62.1924 N.pl3     1 <0>        -0.9138 
     12 N3         -4.2659    4.9268   61.8045 N.pl3     1 <0>        -0.5282 
     13 N4         -3.9985    3.1704   60.2746 N.pl3     1 <0>        -0.5282 
     14 O1         -4.3951    1.9053   56.2058 O.co2     1 <0>        -0.7225 
     15 O2         -5.2455   -0.0730   56.7463 O.co2     1 <0>        -0.7225 
     16 H1         -4.8443    8.8755   64.1696 H         1 <0>         0.0600 
     17 H2         -6.1590    7.7041   64.2041 H         1 <0>         0.0600 
     18 H3         -4.6994    7.4241   65.1549 H         1 <0>         0.0600 
     19 H4         -3.3617    7.2374   63.0350 H         1 <0>         0.0600 
     20 H5         -4.8048    7.5154   62.0910 H         1 <0>         0.0600 
     21 H6         -2.1421    3.8710   57.5123 H         1 <0>         0.0600 
     22 H7         -3.7837    3.2933   57.6273 H         1 <0>         0.0600 
     23 H8         -1.5396    1.5681   58.7294 H         1 <0>         0.0600 
     24 H9         -1.7605    1.6790   57.0001 H         1 <0>         0.0600 
     25 H10        -5.8103    5.3943   63.1424 H         1 <0>         0.0600 
     26 H11        -4.2464    5.1103   63.8929 H         1 <0>         0.0600 
     27 H12        -1.9130    3.4528   60.0599 H         1 <0>         0.0600 
     28 H13        -2.9106    4.7868   59.5442 H         1 <0>         0.0600 
     29 H14        -3.8860    0.7075   58.9658 H         1 <0>         0.0600 
     30 H15        -3.6130   -1.3316   57.8333 H         1 <0>         0.2100 
     31 H16        -2.4071   -0.7290   56.8934 H         1 <0>         0.2100 
     32 H17        -2.1735   -0.8999   58.5268 H         1 <0>         0.2100 
     33 H18        -5.6301    3.1879   63.0600 H         1 <0>         0.4600 
     34 H19        -5.4343    1.8947   61.9106 H         1 <0>         0.4600 
     35 H20        -3.7146    5.5123   61.1930 H         1 <0>         0.3451 
     36 H21        -4.4405    2.3585   59.8672 H         1 <0>         0.3451 
@<TRIPOS>BOND
     1    1    2 1    
     2    1   16 1    
     3    1   17 1    
     4    1   18 1    
     5    2    5 1    
     6    2   19 1    
     7    2   20 1    
     8    3    4 1    
     9    3    6 1    
    10    3   21 1    
    11    3   22 1    
    12    4    7 1    
    13    4   23 1    
    14    4   24 1    
    15    5   12 1    
    16    5   25 1    
    17    5   26 1    
    18    6   13 1    
    19    6   27 1    
    20    6   28 1    
    21    7    8 1    
    22    7   10 1    
    23    7   29 1    
    24    8   14 1    
    25    8   15 2    
    26    9   11 ar   
    27    9   12 ar   
    28    9   13 ar   
    29   10   30 1    
    30   10   31 1    
    31   10   32 1    
    32   11   33 1    
    33   11   34 1    
    34   12   35 1    
    35   13   36 1    
@<TRIPOS>SUBSTRUCTURE
     1 <0>         1 GROUP             0       ****    0 ROOT    
@<TRIPOS>MOLECULE
nos1-ligand
36   35    1
SMALL
USER_CHARGES


@<TRIPOS>ATOM
      1 C1         -4.9835    7.7458   64.2064 C.3       1 <0>        -0.1800 
      2 C2         -4.3272    7.0803   62.9980 C.3       1 <0>        -0.0500 
      3 C3         -3.2380    3.1340   57.8760 C.3       1 <0>        -0.0500 
      4 C4         -2.5734    1.7477   57.6831 C.3       1 <0>        -0.1200 
      5 C5         -4.5487    5.5652   63.0283 C.3       1 <0>         0.1430 
      6 C6         -3.0612    3.7788   59.2632 C.3       1 <0>         0.1430 
      7 C7         -3.0190    0.5990   58.6283 C.3       1 <0>         0.0625 
      8 C8         -4.5438    0.4270   58.6838 C.2       1 <0>         0.4450 
      9 C9         -4.4255    3.6890   61.3930 C.cat     1 <0>         0.6939 
     10 N1         -2.4415   -0.6865   58.2035 N.4       1 <0>         0.2475 
     11 N2         -5.2391    2.9209   62.1261 N.pl3     1 <0>        -0.9138 
     12 N3         -4.0730    4.9187   61.7999 N.pl3     1 <0>        -0.5282 
     13 N4         -3.9835    3.1825   60.2366 N.pl3     1 <0>        -0.5282 
     14 O1         -5.0855    0.5771   59.8030 O.co2     1 <0>        -0.7225 
     15 O2         -5.1413    0.1726   57.6162 O.co2     1 <0>        -0.7225 
     16 H1         -4.8423    8.8254   64.2036 H         1 <0>         0.0600 
     17 H2         -6.0563    7.5538   64.2040 H         1 <0>         0.0600 
     18 H3         -4.5727    7.3617   65.1408 H         1 <0>         0.0600 
     19 H4         -3.2629    7.3187   62.9904 H         1 <0>         0.0600 
     20 H5         -4.7404    7.4954   62.0795 H         1 <0>         0.0600 
     21 H6         -2.8244    3.8138   57.1308 H         1 <0>         0.0600 
     22 H7         -4.3005    3.0680   57.6357 H         1 <0>         0.0600 
     23 H8         -1.4933    1.8694   57.7715 H         1 <0>         0.0600 
     24 H9         -2.7439    1.4401   56.6497 H         1 <0>         0.0600 
     25 H10        -5.6156    5.3628   63.1318 H         1 <0>         0.0600 
     26 H11        -4.0513    5.1195   63.8909 H         1 <0>         0.0600 
     27 H12        -2.0328    3.6850   59.6140 H         1 <0>         0.0600 
     28 H13        -3.2812    4.8440   59.1911 H         1 <0>         0.0600 
     29 H14        -2.6424    0.7965   59.6330 H         1 <0>         0.0600 
     30 H15        -2.7937   -1.4186   58.8058 H         1 <0>         0.2100 
     31 H16        -2.7289   -0.8909   57.2561 H         1 <0>         0.2100 
     32 H17        -1.4322   -0.6678   58.2338 H         1 <0>         0.2100 
     33 H18        -5.5782    3.2398   63.0213 H         1 <0>         0.4600 
     34 H19        -5.5330    2.0231   61.7570 H         1 <0>         0.4600 
     35 H20        -3.4455    5.4567   61.2198 H         1 <0>         0.3451 
     36 H21        -4.3239    2.2503   59.9979 H         1 <0>         0.3451 
@<TRIPOS>BOND
     1    1    2 1    
     2    1   16 1    
     3    1   17 1    
     4    1   18 1    
     5    2    5 1    
     6    2   19 1    
     7    2   20 1    
     8    3    4 1    
     9    3    6 1    
    10    3   21 1    
    11    3   22 1    
    12    4    7 1    
    13    4   23 1    
    14    4   24 1    
    15    5   12 1    
    16    5   25 1    
    17    5   26 1    
    18    6   13 1    
    19    6   27 1    
    20    6   28 1    
    21    7    8 1    
    22    7   10 1    
    23    7   29 1    
    24    8   14 1    
    25    8   15 2    
    26    9   11 ar   
    27    9   12 ar   
    28    9   13 ar   
    29   10   30 1    
    30   10   31 1    
    31   10   32 1    
    32   11   33 1    
    33   11   34 1    
    34   12   35 1    
    35   13   36 1    
@<TRIPOS>SUBSTRUCTURE
     1 <0>         1 GROUP             0       ****    0 ROOT    
@<TRIPOS>MOLECULE
nos1-ligand
36   35    1
SMALL
USER_CHARGES


@<TRIPOS>ATOM
      1 C1         -4.9773    7.7206   64.2040 C.3       1 <0>        -0.1800 
      2 C2         -4.3130    7.1221   62.9638 C.3       1 <0>        -0.0500 
      3 C3         -2.8168    3.6130   57.6206 C.3       1 <0>        -0.0500 
      4 C4         -2.2336    2.1853   57.4602 C.3       1 <0>        -0.1200 
      5 C5         -4.5697    5.6155   62.8539 C.3       1 <0>         0.1430 
      6 C6         -2.8304    4.1784   59.0530 C.3       1 <0>         0.1430 
      7 C7         -2.9527    1.0321   58.2136 C.3       1 <0>         0.0625 
      8 C8         -4.4627    1.0136   57.9565 C.2       1 <0>         0.4450 
      9 C9         -4.3775    3.9065   61.0370 C.cat     1 <0>         0.6939 
     10 N1         -2.4361   -0.2812   57.8041 N.4       1 <0>         0.2475 
     11 N2         -5.2415    3.0722   61.6254 N.pl3     1 <0>        -0.9138 
     12 N3         -4.0421    5.0810   61.5934 N.pl3     1 <0>        -0.5282 
     13 N4         -3.8614    3.5236   59.8652 N.pl3     1 <0>        -0.5282 
     14 O1         -5.2066    1.1669   58.9515 O.co2     1 <0>        -0.7225 
     15 O2         -4.8420    0.8744   56.7741 O.co2     1 <0>        -0.7225 
     16 H1         -4.8557    8.8023   64.2345 H         1 <0>         0.0600 
     17 H2         -6.0461    7.5085   64.2041 H         1 <0>         0.0600 
     18 H3         -4.5500    7.3119   65.1197 H         1 <0>         0.0600 
     19 H4         -3.2424    7.3204   63.0003 H         1 <0>         0.0600 
     20 H5         -4.6814    7.6243   62.0698 H         1 <0>         0.0600 
     21 H6         -2.2311    4.2895   56.9975 H         1 <0>         0.0600 
     22 H7         -3.8239    3.6520   57.2029 H         1 <0>         0.0600 
     23 H8         -1.1865    2.2019   57.7646 H         1 <0>         0.0600 
     24 H9         -2.2187    1.9532   56.3939 H         1 <0>         0.0600 
     25 H10        -5.6417    5.4260   62.8910 H         1 <0>         0.0600 
     26 H11        -4.1219    5.0834   63.6939 H         1 <0>         0.0600 
     27 H12        -1.8555    4.0615   59.5271 H         1 <0>         0.0600 
     28 H13        -3.0466    5.2463   59.0164 H         1 <0>         0.0600 
     29 H14        -2.7601    1.1241   59.2836 H         1 <0>         0.0600 
     30 H15        -2.8995   -1.0035   58.3375 H         1 <0>         0.2100 
     31 H16        -2.6425   -0.4318   56.8259 H         1 <0>         0.2100 
     32 H17        -1.4369   -0.3485   57.9356 H         1 <0>         0.2100 
     33 H18        -5.6800    3.3221   62.4985 H         1 <0>         0.4600 
     34 H19        -5.5105    2.2196   61.1455 H         1 <0>         0.4600 
     35 H20        -3.3576    5.6533   61.1213 H         1 <0>         0.3451 
     36 H21        -4.2448    2.6647   59.4700 H         1 <0>         0.3451 
@<TRIPOS>BOND
     1    1    2 1    
     2    1   16 1    
     3    1   17 1    
     4    1   18 1    
     5    2    5 1    
     6    2   19 1    
     7    2   20 1    
     8    3    4 1    
     9    3    6 1    
    10    3   21 1    
    11    3   22 1    
    12    4    7 1    
    13    4   23 1    
    14    4   24 1    
    15    5   12 1    
    16    5   25 1    
    17    5   26 1    
    18    6   13 1    
    19    6   27 1    
    20    6   28 1    
    21    7    8 1    
    22    7   10 1    
    23    7   29 1    
    24    8   14 1    
    25    8   15 2    
    26    9   11 ar   
    27    9   12 ar   
    28    9   13 ar   
    29   10   30 1    
    30   10   31 1    
    31   10   32 1    
    32   11   33 1    
    33   11   34 1    
    34   12   35 1    
    35   13   36 1    
@<TRIPOS>SUBSTRUCTURE
     1 <0>         1 GROUP             0       ****    0 ROOT    
@<TRIPOS>MOLECULE
nos1-ligand
36   35    1
SMALL
USER_CHARGES


@<TRIPOS>ATOM
      1 C1         -5.1060    7.6477   64.2040 C.3       1 <0>        -0.1800 
      2 C2         -4.4419    6.9945   62.9927 C.3       1 <0>        -0.0500 
      3 C3         -2.3899    3.2042   58.1156 C.3       1 <0>        -0.0500 
      4 C4         -2.0772    1.7057   57.8475 C.3       1 <0>        -0.1200 
      5 C5         -4.6872    5.4816   62.9669 C.3       1 <0>         0.1430 
      6 C6         -2.4355    3.6516   59.5899 C.3       1 <0>         0.1430 
      7 C7         -3.0672    0.6427   58.4060 C.3       1 <0>         0.0625 
      8 C8         -4.5283    0.9882   58.1192 C.2       1 <0>         0.4450 
      9 C9         -4.3280    3.6569   61.2856 C.cat     1 <0>         0.6939 
     10 N1         -2.8420   -0.6798   57.8040 N.4       1 <0>         0.2475 
     11 N2         -5.3246    2.9161   61.7730 N.pl3     1 <0>        -0.9138 
     12 N3         -4.0421    4.8606   61.8039 N.pl3     1 <0>        -0.5282 
     13 N4         -3.6377    3.1434   60.2606 N.pl3     1 <0>        -0.5282 
     14 O1         -4.8422    1.1768   56.9252 O.co2     1 <0>        -0.7225 
     15 O2         -5.2921    1.0759   59.1070 O.co2     1 <0>        -0.7225 
     16 H1         -4.9658    8.7283   64.2041 H         1 <0>         0.0600 
     17 H2         -6.1775    7.4479   64.2040 H         1 <0>         0.0600 
     18 H3         -4.6912    7.2640   65.1360 H         1 <0>         0.0600 
     19 H4         -3.3752    7.2208   63.0003 H         1 <0>         0.0600 
     20 H5         -4.8416    7.4363   62.0803 H         1 <0>         0.0600 
     21 H6         -1.6265    3.7990   57.6125 H         1 <0>         0.0600 
     22 H7         -3.3226    3.4839   57.6239 H         1 <0>         0.0600 
     23 H8         -1.0795    1.4837   58.2284 H         1 <0>         0.0600 
     24 H9         -2.0022    1.5777   56.7658 H         1 <0>         0.0600 
     25 H10        -5.7584    5.2861   62.9365 H         1 <0>         0.0600 
     26 H11        -4.3052    5.0151   63.8756 H         1 <0>         0.0600 
     27 H12        -1.5466    3.3183   60.1263 H         1 <0>         0.0600 
     28 H13        -2.4454    4.7406   59.6302 H         1 <0>         0.0600 
     29 H14        -2.9127    0.5413   59.4816 H         1 <0>         0.0600 
     30 H15        -3.4143   -1.3652   58.2804 H         1 <0>         0.2100 
     31 H16        -3.1149   -0.6416   56.8321 H         1 <0>         0.2100 
     32 H17        -1.8691   -0.9536   57.8528 H         1 <0>         0.2100 
     33 H18        -5.8982    3.2680   62.5245 H         1 <0>         0.4600 
     34 H19        -5.5935    2.0704   61.2821 H         1 <0>         0.4600 
     35 H20        -3.2753    5.3775   61.3992 H         1 <0>         0.3451 
     36 H21        -4.0332    2.3004   59.8497 H         1 <0>         0.3451 
@<TRIPOS>BOND
     1    1    2 1    
     2    1   16 1    
     3    1   17 1    
     4    1   18 1    
     5    2    5 1    
     6    2   19 1    
     7    2   20 1    
     8    3    4 1    
     9    3    6 1    
    10    3   21 1    
    11    3   22 1    
    12    4    7 1    
    13    4   23 1    
    14    4   24 1    
    15    5   12 1    
    16    5   25 1    
    17    5   26 1    
    18    6   13 1    
    19    6   27 1    
    20    6   28 1    
    21    7    8 1    
    22    7   10 1    
    23    7   29 1    
    24    8   14 1    
    25    8   15 2    
    26    9   11 ar   
    27    9   12 ar   
    28    9   13 ar   
    29   10   30 1    
    30   10   31 1    
    31   10   32 1    
    32   11   33 1    
    33   11   34 1    
    34   12   35 1    
    35   13   36 1    
@<TRIPOS>SUBSTRUCTURE
     1 <0>         1 GROUP             0       ****    0 ROOT    
@<TRIPOS>MOLECULE
nos1-ligand
36   35    1
SMALL
USER_CHARGES


@<TRIPOS>ATOM
      1 C1         -4.3255    7.0763   63.0651 C.3       1 <0>        -0.1800 
      2 C2         -5.1440    6.1698   63.9917 C.3       1 <0>        -0.0500 
      3 C3         -3.2347    3.1374   58.5845 C.3       1 <0>        -0.0500 
      4 C4         -2.6534    1.7903   58.0877 C.3       1 <0>        -0.1200 
      5 C5         -4.7822    4.6745   63.9653 C.3       1 <0>         0.1430 
      6 C6         -3.2309    3.3542   60.1092 C.3       1 <0>         0.1430 
      7 C7         -3.3669    0.4900   58.5410 C.3       1 <0>         0.0625 
      8 C8         -4.8734    0.5454   58.2729 C.2       1 <0>         0.4450 
      9 C9         -4.9698    3.1764   61.9241 C.cat     1 <0>         0.6939 
     10 N1         -2.8413   -0.6815   57.8151 N.4       1 <0>         0.2475 
     11 N2         -6.0394    2.5194   62.3828 N.pl3     1 <0>        -0.9138 
     12 N3         -4.4422    4.1997   62.6144 N.pl3     1 <0>        -0.5282 
     13 N4         -4.4336    2.7987   60.7514 N.pl3     1 <0>        -0.5282 
     14 O1         -5.6279    0.7048   59.2599 O.co2     1 <0>        -0.7225 
     15 O2         -5.2403    0.4510   57.0813 O.co2     1 <0>        -0.7225 
     16 H1         -4.5397    8.1199   63.2747 H         1 <0>         0.0600 
     17 H2         -3.2598    6.9539   63.2157 H         1 <0>         0.0600 
     18 H3         -4.5471    6.8912   62.0142 H         1 <0>         0.0600 
     19 H4         -6.2037    6.3033   63.8041 H         1 <0>         0.0600 
     20 H5         -4.9771    6.5330   65.0028 H         1 <0>         0.0600 
     21 H6         -2.6524    3.9398   58.1307 H         1 <0>         0.0600 
     22 H7         -4.2439    3.2741   58.1944 H         1 <0>         0.0600 
     23 H8         -1.6054    1.7337   58.3827 H         1 <0>         0.0600 
     24 H9         -2.6447    1.8206   56.9973 H         1 <0>         0.0600 
     25 H10        -5.5919    4.0885   64.3978 H         1 <0>         0.0600 
     26 H11        -3.9162    4.4985   64.6039 H         1 <0>         0.0600 
     27 H12        -2.3332    2.9355   60.5658 H         1 <0>         0.0600 
     28 H13        -3.2119    4.4279   60.3005 H         1 <0>         0.0600 
     29 H14        -3.1905    0.3271   59.6055 H         1 <0>         0.0600 
     30 H15        -3.2705   -1.5154   58.1918 H         1 <0>         0.2100 
     31 H16        -3.1018   -0.6023   56.8426 H         1 <0>         0.2100 
     32 H17        -1.8354   -0.7563   57.8837 H         1 <0>         0.2100 
     33 H18        -6.5571    2.9264   63.1468 H         1 <0>         0.4600 
     34 H19        -6.4604    1.8007   61.8058 H         1 <0>         0.4600 
     35 H20        -3.6780    4.6931   62.1777 H         1 <0>         0.3451 
     36 H21        -4.8784    2.0284   60.2454 H         1 <0>         0.3451 
@<TRIPOS>BOND
     1    1    2 1    
     2    1   16 1    
     3    1   17 1    
     4    1   18 1    
     5    2    5 1    
     6    2   19 1    
     7    2   20 1    
     8    3    4 1    
     9    3    6 1    
    10    3   21 1    
    11    3   22 1    
    12    4    7 1    
    13    4   23 1    
    14    4   24 1    
    15    5   12 1    
    16    5   25 1    
    17    5   26 1    
    18    6   13 1    
    19    6   27 1    
    20    6   28 1    
    21    7    8 1    
    22    7   10 1    
    23    7   29 1    
    24    8   14 1    
    25    8   15 2    
    26    9   11 ar   
    27    9   12 ar   
    28    9   13 ar   
    29   10   30 1    
    30   10   31 1    
    31   10   32 1    
    32   11   33 1    
    33   11   34 1    
    34   12   35 1    
    35   13   36 1    
@<TRIPOS>SUBSTRUCTURE
     1 <0>         1 GROUP             0       ****    0 ROOT    
@<TRIPOS>MOLECULE
nos1-ligand
36   35    1
SMALL
USER_CHARGES


@<TRIPOS>ATOM
      1 C1         -5.0041    7.7379   64.2046 C.3       1 <0>        -0.1800 
      2 C2         -4.3722    7.0739   62.9836 C.3       1 <0>        -0.0500 
      3 C3         -3.2648    3.1316   57.8679 C.3       1 <0>        -0.0500 
      4 C4         -2.5911    1.7496   57.6770 C.3       1 <0>        -0.1200 
      5 C5         -4.5648    5.5574   63.0284 C.3       1 <0>         0.1430 
      6 C6         -3.0866    3.7811   59.2530 C.3       1 <0>         0.1430 
      7 C7         -3.0260    0.6017   58.6274 C.3       1 <0>         0.0625 
      8 C8         -4.5494    0.4201   58.6852 C.2       1 <0>         0.4450 
      9 C9         -4.4354    3.6876   61.3927 C.cat     1 <0>         0.6939 
     10 N1         -2.4428   -0.6817   58.2039 N.4       1 <0>         0.2475 
     11 N2         -5.2414    2.9200   62.1339 N.pl3     1 <0>        -0.9138 
     12 N3         -4.0874    4.9170   61.7980 N.pl3     1 <0>        -0.5282 
     13 N4         -3.9974    3.1819   60.2346 N.pl3     1 <0>        -0.5282 
     14 O1         -5.0924    0.5721   59.8035 O.co2     1 <0>        -0.7225 
     15 O2         -5.1434    0.1557   57.6178 O.co2     1 <0>        -0.7225 
     16 H1         -4.8470    8.8156   64.2053 H         1 <0>         0.0600 
     17 H2         -6.0792    7.5593   64.2041 H         1 <0>         0.0600 
     18 H3         -4.5887    7.3433   65.1323 H         1 <0>         0.0600 
     19 H4         -3.3113    7.3237   62.9400 H         1 <0>         0.0600 
     20 H5         -4.8272    7.4733   62.0775 H         1 <0>         0.0600 
     21 H6         -2.8593    3.8126   57.1188 H         1 <0>         0.0600 
     22 H7         -4.3274    3.0591   57.6319 H         1 <0>         0.0600 
     23 H8         -1.5113    1.8775   57.7620 H         1 <0>         0.0600 
     24 H9         -2.7625    1.4378   56.6451 H         1 <0>         0.0600 
     25 H10        -5.6264    5.3370   63.1461 H         1 <0>         0.0600 
     26 H11        -4.0489    5.1272   63.8876 H         1 <0>         0.0600 
     27 H12        -2.0557    3.6966   59.5972 H         1 <0>         0.0600 
     28 H13        -3.3154    4.8449   59.1786 H         1 <0>         0.0600 
     29 H14        -2.6463    0.8048   59.6301 H         1 <0>         0.0600 
     30 H15        -2.7667   -1.4122   58.8245 H         1 <0>         0.2100 
     31 H16        -2.7563   -0.9006   57.2673 H         1 <0>         0.2100 
     32 H17        -1.4328   -0.6477   58.1994 H         1 <0>         0.2100 
     33 H18        -5.5736    3.2404   63.0307 H         1 <0>         0.4600 
     34 H19        -5.5373    2.0220   61.7690 H         1 <0>         0.4600 
     35 H20        -3.4542    5.4573   61.2238 H         1 <0>         0.3451 
     36 H21        -4.3373    2.2498   59.9976 H         1 <0>         0.3451 
@<TRIPOS>BOND
     1    1    2 1    
     2    1   16 1    
     3    1   17 1    
     4    1   18 1    
     5    2    5 1    
     6    2   19 1    
     7    2   20 1    
     8    3    4 1    
     9    3    6 1    
    10    3   21 1    
    11    3   22 1    
    12    4    7 1    
    13    4   23 1    
    14    4   24 1    
    15    5   12 1    
    16    5   25 1    
    17    5   26 1    
    18    6   13 1    
    19    6   27 1    
    20    6   28 1    
    21    7    8 1    
    22    7   10 1    
    23    7   29 1    
    24    8   14 1    
    25    8   15 2    
    26    9   11 ar   
    27    9   12 ar   
    28    9   13 ar   
    29   10   30 1    
    30   10   31 1    
    31   10   32 1    
    32   11   33 1    
    33   11   34 1    
    34   12   35 1    
    35   13   36 1    
@<TRIPOS>SUBSTRUCTURE
     1 <0>         1 GROUP             0       ****    0 ROOT    
