@<TRIPOS>MOLECULE
nram-ligand
50   51    1
SMALL
USER_CHARGES


@<TRIPOS>ATOM
      1 C1         29.8371  -12.3072   62.8953 C.3       1 <0>        -0.1800 
      2 C2         27.4221   -8.1580   64.0481 C.3       1 <0>        -0.1800 
      3 C3         33.7771  -10.6937   65.7092 C.ar      1 <0>        -0.1150 
      4 C4         33.6406   -9.5164   64.9622 C.ar      1 <0>        -0.1150 
      5 C5         31.4015  -11.1067   65.5302 C.ar      1 <0>        -0.1150 
      6 C6         31.8619   -5.9374   62.6074 C.3       1 <0>        -0.1200 
      7 C7         32.7363   -6.6897   61.6327 C.3       1 <0>        -0.1200 
      8 C8         28.7588  -11.8599   63.8926 C.3       1 <0>        -0.1200 
      9 C9         27.6447   -9.5994   63.5627 C.3       1 <0>        -0.1200 
     10 C10        34.2397   -8.6635   61.9115 C.3       1 <0>         0.1450 
     11 C11        31.7635   -9.0038   61.2656 C.3       1 <0>         0.1450 
     12 C12        32.6736  -11.5355   65.9538 C.ar      1 <0>        -0.1150 
     13 C13        32.3989   -9.1765   64.3967 C.ar      1 <0>        -0.0383 
     14 C14        31.2546   -9.9660   64.7015 C.ar      1 <0>         0.2000 
     15 C15        31.9061   -6.8581   63.7946 C.2       1 <0>         0.5000 
     16 C16        28.7616  -10.3566   64.3086 C.3       1 <0>         0.1400 
     17 C17        32.8858  -12.9251   66.4969 C.2       1 <0>         0.7150 
     18 C18        32.7828   -8.1667   62.0756 C.3       1 <0>         0.0700 
     19 N1         30.0252   -9.6483   64.1000 N.pl3     1 <0>        -0.7800 
     20 N2         32.3582   -8.0795   63.4827 N.am      1 <0>        -0.0317 
     21 O1         34.3595  -10.0546   62.0899 O.3       1 <0>        -0.6830 
     22 O2         31.9494   -8.8831   59.8637 O.3       1 <0>        -0.6830 
     23 O3         34.0218  -13.2316   66.9261 O.co2     1 <0>        -0.8000 
     24 O4         31.5669   -6.4652   64.8976 O.2       1 <0>        -0.5000 
     25 O5         31.9729  -13.7823   66.3896 O.co2     1 <0>        -0.8000 
     26 H1         29.5646  -13.2549   62.4331 H         1 <0>         0.0600 
     27 H2         30.8106  -12.4499   63.3581 H         1 <0>         0.0600 
     28 H3         29.9596  -11.5786   62.0968 H         1 <0>         0.0600 
     29 H4         26.5909   -7.6970   63.5135 H         1 <0>         0.0600 
     30 H5         27.1892   -8.1329   65.1129 H         1 <0>         0.0600 
     31 H6         28.3016   -7.5356   63.8817 H         1 <0>         0.0600 
     32 H7         34.7613  -10.9737   66.0214 H         1 <0>         0.1150 
     33 H8         34.5234   -8.9271   64.7585 H         1 <0>         0.1150 
     34 H9         30.5607  -11.7362   65.7600 H         1 <0>         0.1150 
     35 H10        30.8358   -5.8486   62.2500 H         1 <0>         0.0600 
     36 H11        32.2528   -4.9473   62.8446 H         1 <0>         0.0600 
     37 H12        32.3624   -6.5685   60.6166 H         1 <0>         0.0600 
     38 H13        33.7344   -6.2525   61.6976 H         1 <0>         0.0600 
     39 H14        27.7890  -12.1132   63.4620 H         1 <0>         0.0600 
     40 H15        28.8204  -12.4923   64.7773 H         1 <0>         0.0600 
     41 H16        27.8596   -9.5975   62.4944 H         1 <0>         0.0600 
     42 H17        26.7087  -10.1439   63.6760 H         1 <0>         0.0600 
     43 H18        34.5863   -8.4422   60.9032 H         1 <0>         0.0600 
     44 H19        34.9227   -8.1502   62.5907 H         1 <0>         0.0600 
     45 H20        31.7753  -10.0546   61.5693 H         1 <0>         0.0600 
     46 H21        30.7635   -8.6549   61.4979 H         1 <0>         0.0600 
     47 H22        28.5337  -10.3072   65.3747 H         1 <0>         0.0600 
     48 H23        30.0017   -8.8673   63.4648 H         1 <0>         0.3800 
     49 H24        33.7069  -10.5055   61.5613 H         1 <0>         0.4180 
     50 H25        32.8505   -9.0749   59.6375 H         1 <0>         0.4180 
@<TRIPOS>BOND
     1    1    8 1    
     2    1   26 1    
     3    1   27 1    
     4    1   28 1    
     5    2    9 1    
     6    2   29 1    
     7    2   30 1    
     8    2   31 1    
     9    3    4 ar   
    10    3   12 ar   
    11    3   32 1    
    12    4   13 ar   
    13    4   33 1    
    14    5   12 ar   
    15    5   14 ar   
    16    5   34 1    
    17    6    7 1    
    18    6   15 1    
    19    6   35 1    
    20    6   36 1    
    21    7   18 1    
    22    7   37 1    
    23    7   38 1    
    24    8   16 1    
    25    8   39 1    
    26    8   40 1    
    27    9   16 1    
    28    9   41 1    
    29    9   42 1    
    30   10   18 1    
    31   10   21 1    
    32   10   43 1    
    33   10   44 1    
    34   11   18 1    
    35   11   22 1    
    36   11   45 1    
    37   11   46 1    
    38   12   17 1    
    39   13   14 ar   
    40   13   20 1    
    41   14   19 1    
    42   15   20 am   BACKBONE|DICT|INTERRES
    43   15   24 2    
    44   16   19 1    
    45   16   47 1    
    46   17   23 1    
    47   17   25 2    
    48   18   20 1    
    49   19   48 1    
    50   21   49 1    
    51   22   50 1    
@<TRIPOS>SUBSTRUCTURE
     1 <0>         1 GROUP             0       ****    0 ROOT    
@<TRIPOS>MOLECULE
nram-ligand
50   51    1
SMALL
USER_CHARGES


@<TRIPOS>ATOM
      1 C1         27.9637  -12.5395   63.6966 C.3       1 <0>        -0.1800 
      2 C2         27.2965   -8.1863   64.8403 C.3       1 <0>        -0.1800 
      3 C3         33.7936  -10.7258   65.6970 C.ar      1 <0>        -0.1150 
      4 C4         33.6999   -9.5420   64.9566 C.ar      1 <0>        -0.1150 
      5 C5         31.3993  -11.0110   65.6131 C.ar      1 <0>        -0.1150 
      6 C6         31.9482   -5.9029   62.6240 C.3       1 <0>        -0.1200 
      7 C7         32.7699   -6.6958   61.6343 C.3       1 <0>        -0.1200 
      8 C8         29.0332  -11.4589   63.5221 C.3       1 <0>        -0.1200 
      9 C9         27.6423   -9.3649   63.9183 C.3       1 <0>        -0.1200 
     10 C10        34.2578   -8.6684   61.9128 C.3       1 <0>         0.1450 
     11 C11        31.7483   -9.0098   61.3663 C.3       1 <0>         0.1450 
     12 C12        32.6636  -11.5148   65.9727 C.ar      1 <0>        -0.1150 
     13 C13        32.4564   -9.1241   64.4540 C.ar      1 <0>        -0.0383 
     14 C14        31.2813   -9.8286   64.8347 C.ar      1 <0>         0.2000 
     15 C15        31.9631   -6.8249   63.8106 C.2       1 <0>         0.5000 
     16 C16        28.8387  -10.2081   64.4049 C.3       1 <0>         0.1400 
     17 C17        32.8386  -12.9164   66.4970 C.2       1 <0>         0.7150 
     18 C18        32.8117   -8.1619   62.1103 C.3       1 <0>         0.0700 
     19 N1         30.0321   -9.3755   64.3800 N.pl3     1 <0>        -0.7800 
     20 N2         32.4361   -8.0396   63.5256 N.am      1 <0>        -0.0317 
     21 O1         34.3634  -10.0546   62.0968 O.3       1 <0>        -0.6830 
     22 O2         31.8606   -8.9149   59.9555 O.3       1 <0>        -0.6830 
     23 O3         33.9632  -13.2545   66.9394 O.co2     1 <0>        -0.8000 
     24 O4         31.5636   -6.4546   64.8969 O.2       1 <0>        -0.5000 
     25 O5         31.9071  -13.7488   66.3679 O.co2     1 <0>        -0.8000 
     26 H1         28.1638  -13.3807   63.0327 H         1 <0>         0.0600 
     27 H2         26.9649  -12.1758   63.4621 H         1 <0>         0.0600 
     28 H3         27.9633  -12.9145   64.7192 H         1 <0>         0.0600 
     29 H4         26.4178   -7.6553   64.4740 H         1 <0>         0.0600 
     30 H5         27.0809   -8.5298   65.8522 H         1 <0>         0.0600 
     31 H6         28.1148   -7.4680   64.8957 H         1 <0>         0.0600 
     32 H7         34.7645  -11.0766   65.9600 H         1 <0>         0.1150 
     33 H8         34.6077   -9.0103   64.7106 H         1 <0>         0.1150 
     34 H9         30.5301  -11.5957   65.8703 H         1 <0>         0.1150 
     35 H10        30.9237   -5.7596   62.2792 H         1 <0>         0.0600 
     36 H11        32.3922   -4.9349   62.8595 H         1 <0>         0.0600 
     37 H12        32.3635   -6.5900   60.6304 H         1 <0>         0.0600 
     38 H13        33.7791   -6.2810   61.6427 H         1 <0>         0.0600 
     39 H14        29.9936  -11.9420   63.6873 H         1 <0>         0.0600 
     40 H15        29.0825  -11.1253   62.4969 H         1 <0>         0.0600 
     41 H16        27.8341   -8.9937   62.9101 H         1 <0>         0.0600 
     42 H17        26.7636   -9.9981   63.8318 H         1 <0>         0.0600 
     43 H18        34.5823   -8.4533   60.8970 H         1 <0>         0.0600 
     44 H19        34.9592   -8.1568   62.5736 H         1 <0>         0.0600 
     45 H20        31.7624  -10.0515   61.6855 H         1 <0>         0.0600 
     46 H21        30.7636   -8.6470   61.6428 H         1 <0>         0.0600 
     47 H22        28.6531  -10.5157   65.4347 H         1 <0>         0.0600 
     48 H23        30.0099   -8.5590   63.7900 H         1 <0>         0.3800 
     49 H24        33.7082  -10.5004   61.5679 H         1 <0>         0.4180 
     50 H25        32.7272   -9.1857   59.6849 H         1 <0>         0.4180 
@<TRIPOS>BOND
     1    1    8 1    
     2    1   26 1    
     3    1   27 1    
     4    1   28 1    
     5    2    9 1    
     6    2   29 1    
     7    2   30 1    
     8    2   31 1    
     9    3    4 ar   
    10    3   12 ar   
    11    3   32 1    
    12    4   13 ar   
    13    4   33 1    
    14    5   12 ar   
    15    5   14 ar   
    16    5   34 1    
    17    6    7 1    
    18    6   15 1    
    19    6   35 1    
    20    6   36 1    
    21    7   18 1    
    22    7   37 1    
    23    7   38 1    
    24    8   16 1    
    25    8   39 1    
    26    8   40 1    
    27    9   16 1    
    28    9   41 1    
    29    9   42 1    
    30   10   18 1    
    31   10   21 1    
    32   10   43 1    
    33   10   44 1    
    34   11   18 1    
    35   11   22 1    
    36   11   45 1    
    37   11   46 1    
    38   12   17 1    
    39   13   14 ar   
    40   13   20 1    
    41   14   19 1    
    42   15   20 am   BACKBONE|DICT|INTERRES
    43   15   24 2    
    44   16   19 1    
    45   16   47 1    
    46   17   23 1    
    47   17   25 2    
    48   18   20 1    
    49   19   48 1    
    50   21   49 1    
    51   22   50 1    
@<TRIPOS>SUBSTRUCTURE
     1 <0>         1 GROUP             0       ****    0 ROOT    
@<TRIPOS>MOLECULE
nram-ligand
50   51    1
SMALL
USER_CHARGES


@<TRIPOS>ATOM
      1 C1         27.2879   -8.5450   63.2836 C.3       1 <0>        -0.1800 
      2 C2         27.5636  -11.8945   65.7673 C.3       1 <0>        -0.1800 
      3 C3         33.7761  -10.7107   65.7108 C.ar      1 <0>        -0.1150 
      4 C4         33.6497   -9.5198   64.9797 C.ar      1 <0>        -0.1150 
      5 C5         31.4392  -11.2077   65.3127 C.ar      1 <0>        -0.1150 
      6 C6         31.9119   -5.9170   62.6188 C.3       1 <0>        -0.1200 
      7 C7         32.7569   -6.6862   61.6303 C.3       1 <0>        -0.1200 
      8 C8         27.8224   -9.9769   63.0874 C.3       1 <0>        -0.1200 
      9 C9         28.2754  -10.5583   65.5591 C.3       1 <0>        -0.1200 
     10 C10        34.2523   -8.6661   61.9125 C.3       1 <0>         0.1450 
     11 C11        31.7663   -9.0027   61.2817 C.3       1 <0>         0.1450 
     12 C12        32.6842  -11.5958   65.8501 C.ar      1 <0>        -0.1150 
     13 C13        32.4234   -9.1734   64.3825 C.ar      1 <0>        -0.0383 
     14 C14        31.2812   -9.9868   64.6052 C.ar      1 <0>         0.2000 
     15 C15        31.9348   -6.8459   63.8004 C.2       1 <0>         0.5000 
     16 C16        28.8602  -10.4394   64.1324 C.3       1 <0>         0.1400 
     17 C17        32.8755  -12.9737   66.4397 C.2       1 <0>         0.7150 
     18 C18        32.7988   -8.1605   62.0781 C.3       1 <0>         0.0700 
     19 N1         30.0339   -9.5789   64.0967 N.pl3     1 <0>        -0.7800 
     20 N2         32.3952   -8.0629   63.4882 N.am      1 <0>        -0.0317 
     21 O1         34.3611  -10.0546   62.0968 O.3       1 <0>        -0.6830 
     22 O2         31.9433   -8.8836   59.8783 O.3       1 <0>        -0.6830 
     23 O3         33.9647  -13.2538   66.9933 O.co2     1 <0>        -0.8000 
     24 O4         31.5636   -6.4638   64.8970 O.2       1 <0>        -0.5000 
     25 O5         31.9982  -13.8539   66.2491 O.co2     1 <0>        -0.8000 
     26 H1         26.5775   -8.2907   62.4971 H         1 <0>         0.0600 
     27 H2         28.0892   -7.8066   63.2491 H         1 <0>         0.0600 
     28 H3         26.7624   -8.4274   64.2301 H         1 <0>         0.0600 
     29 H4         27.1125  -11.9465   66.7580 H         1 <0>         0.0600 
     30 H5         26.7780  -12.0294   65.0230 H         1 <0>         0.0600 
     31 H6         28.2581  -12.7294   65.6704 H         1 <0>         0.0600 
     32 H7         34.7538  -10.9600   66.0834 H         1 <0>         0.1150 
     33 H8         34.5261   -8.9055   64.8298 H         1 <0>         0.1150 
     34 H9         30.6122  -11.8892   65.4296 H         1 <0>         0.1150 
     35 H10        30.8879   -5.7912   62.2656 H         1 <0>         0.0600 
     36 H11        32.3343   -4.9412   62.8628 H         1 <0>         0.0600 
     37 H12        32.3635   -6.5659   60.6233 H         1 <0>         0.0600 
     38 H13        33.7619   -6.2632   61.6672 H         1 <0>         0.0600 
     39 H14        26.9841  -10.6734   63.0726 H         1 <0>         0.0600 
     40 H15        28.2731  -10.0544   62.0979 H         1 <0>         0.0600 
     41 H16        29.0559  -10.4769   66.3153 H         1 <0>         0.0600 
     42 H17        27.5973   -9.7367   65.7793 H         1 <0>         0.0600 
     43 H18        34.6020   -8.4451   60.9059 H         1 <0>         0.0600 
     44 H19        34.9364   -8.1571   62.5927 H         1 <0>         0.0600 
     45 H20        31.7757  -10.0516   61.5804 H         1 <0>         0.0600 
     46 H21        30.7644   -8.6528   61.5162 H         1 <0>         0.0600 
     47 H22        29.1944  -11.4280   63.8114 H         1 <0>         0.0600 
     48 H23        29.9815   -8.7366   63.5461 H         1 <0>         0.3800 
     49 H24        33.7102  -10.5009   61.5629 H         1 <0>         0.4180 
     50 H25        32.8417   -9.0796   59.6465 H         1 <0>         0.4180 
@<TRIPOS>BOND
     1    1    8 1    
     2    1   26 1    
     3    1   27 1    
     4    1   28 1    
     5    2    9 1    
     6    2   29 1    
     7    2   30 1    
     8    2   31 1    
     9    3    4 ar   
    10    3   12 ar   
    11    3   32 1    
    12    4   13 ar   
    13    4   33 1    
    14    5   12 ar   
    15    5   14 ar   
    16    5   34 1    
    17    6    7 1    
    18    6   15 1    
    19    6   35 1    
    20    6   36 1    
    21    7   18 1    
    22    7   37 1    
    23    7   38 1    
    24    8   16 1    
    25    8   39 1    
    26    8   40 1    
    27    9   16 1    
    28    9   41 1    
    29    9   42 1    
    30   10   18 1    
    31   10   21 1    
    32   10   43 1    
    33   10   44 1    
    34   11   18 1    
    35   11   22 1    
    36   11   45 1    
    37   11   46 1    
    38   12   17 1    
    39   13   14 ar   
    40   13   20 1    
    41   14   19 1    
    42   15   20 am   BACKBONE|DICT|INTERRES
    43   15   24 2    
    44   16   19 1    
    45   16   47 1    
    46   17   23 1    
    47   17   25 2    
    48   18   20 1    
    49   19   48 1    
    50   21   49 1    
    51   22   50 1    
@<TRIPOS>SUBSTRUCTURE
     1 <0>         1 GROUP             0       ****    0 ROOT    
@<TRIPOS>MOLECULE
nram-ligand
50   51    1
SMALL
USER_CHARGES


@<TRIPOS>ATOM
      1 C1         27.7507   -9.1696   66.1276 C.3       1 <0>        -0.1800 
      2 C2         28.0432  -12.8326   63.5707 C.3       1 <0>        -0.1800 
      3 C3         33.8663  -10.6665   65.7014 C.ar      1 <0>        -0.1150 
      4 C4         33.7045   -9.4884   64.9620 C.ar      1 <0>        -0.1150 
      5 C5         31.4983  -11.0955   65.5722 C.ar      1 <0>        -0.1150 
      6 C6         31.8545   -5.9431   62.6026 C.3       1 <0>        -0.1200 
      7 C7         32.7339   -6.6973   61.6335 C.3       1 <0>        -0.1200 
      8 C8         28.1772  -10.5472   65.5997 C.3       1 <0>        -0.1200 
      9 C9         29.1927  -11.8282   63.5285 C.3       1 <0>        -0.1200 
     10 C10        34.2440   -8.6661   61.9113 C.3       1 <0>         0.1450 
     11 C11        31.7557   -9.0154   61.3136 C.3       1 <0>         0.1450 
     12 C12        32.7796  -11.5230   65.9675 C.ar      1 <0>        -0.1150 
     13 C13        32.4480   -9.1510   64.4296 C.ar      1 <0>        -0.0383 
     14 C14        31.3131   -9.9396   64.7670 C.ar      1 <0>         0.2000 
     15 C15        31.9145   -6.8500   63.7998 C.2       1 <0>         0.5000 
     16 C16        28.8903  -10.4758   64.2254 C.3       1 <0>         0.1400 
     17 C17        33.0051  -12.9215   66.4969 C.2       1 <0>         0.7150 
     18 C18        32.7905   -8.1684   62.0922 C.3       1 <0>         0.0700 
     19 N1         30.0538   -9.5902   64.2402 N.pl3     1 <0>        -0.7800 
     20 N2         32.3864   -8.0658   63.5038 N.am      1 <0>        -0.0317 
     21 O1         34.3634  -10.0550   62.0962 O.3       1 <0>        -0.6830 
     22 O2         31.9149   -8.9223   59.9067 O.3       1 <0>        -0.6830 
     23 O3         34.1468  -13.2543   66.8976 O.co2     1 <0>        -0.8000 
     24 O4         31.5636   -6.4546   64.8970 O.2       1 <0>        -0.5000 
     25 O5         32.0850  -13.7716   66.4083 O.co2     1 <0>        -0.8000 
     26 H1         27.1834   -9.2675   67.0530 H         1 <0>         0.0600 
     27 H2         27.1242   -8.6468   65.4046 H         1 <0>         0.0600 
     28 H3         28.6175   -8.5424   66.3373 H         1 <0>         0.0600 
     29 H4         28.2268  -13.6548   62.8809 H         1 <0>         0.0600 
     30 H5         27.9644  -13.2547   64.5712 H         1 <0>         0.0600 
     31 H6         27.0932  -12.3715   63.3015 H         1 <0>         0.0600 
     32 H7         34.8633  -10.9352   65.9688 H         1 <0>         0.1150 
     33 H8         34.5793   -8.8963   64.7352 H         1 <0>         0.1150 
     34 H9         30.6761  -11.7404   65.8230 H         1 <0>         0.1150 
     35 H10        30.8269   -5.8687   62.2459 H         1 <0>         0.0600 
     36 H11        32.2352   -4.9461   62.8278 H         1 <0>         0.0600 
     37 H12        32.3636   -6.5882   60.6158 H         1 <0>         0.0600 
     38 H13        33.7289   -6.2529   61.6951 H         1 <0>         0.0600 
     39 H14        28.7842  -11.0417   66.3543 H         1 <0>         0.0600 
     40 H15        27.2760  -11.1522   65.5069 H         1 <0>         0.0600 
     41 H16        29.4589  -11.6140   62.4971 H         1 <0>         0.0600 
     42 H17        30.0668  -12.3429   63.9129 H         1 <0>         0.0600 
     43 H18        34.5762   -8.4467   60.8985 H         1 <0>         0.0600 
     44 H19        34.9354   -8.1476   62.5769 H         1 <0>         0.0600 
     45 H20        31.7621  -10.0544   61.6364 H         1 <0>         0.0600 
     46 H21        30.7636   -8.6548   61.5583 H         1 <0>         0.0600 
     47 H22        28.1820   -9.9754   63.5634 H         1 <0>         0.0600 
     48 H23        30.0135   -8.7906   63.6286 H         1 <0>         0.3800 
     49 H24        33.7109  -10.5062   61.5679 H         1 <0>         0.4180 
     50 H25        32.8062   -9.1418   59.6677 H         1 <0>         0.4180 
@<TRIPOS>BOND
     1    1    8 1    
     2    1   26 1    
     3    1   27 1    
     4    1   28 1    
     5    2    9 1    
     6    2   29 1    
     7    2   30 1    
     8    2   31 1    
     9    3    4 ar   
    10    3   12 ar   
    11    3   32 1    
    12    4   13 ar   
    13    4   33 1    
    14    5   12 ar   
    15    5   14 ar   
    16    5   34 1    
    17    6    7 1    
    18    6   15 1    
    19    6   35 1    
    20    6   36 1    
    21    7   18 1    
    22    7   37 1    
    23    7   38 1    
    24    8   16 1    
    25    8   39 1    
    26    8   40 1    
    27    9   16 1    
    28    9   41 1    
    29    9   42 1    
    30   10   18 1    
    31   10   21 1    
    32   10   43 1    
    33   10   44 1    
    34   11   18 1    
    35   11   22 1    
    36   11   45 1    
    37   11   46 1    
    38   12   17 1    
    39   13   14 ar   
    40   13   20 1    
    41   14   19 1    
    42   15   20 am   BACKBONE|DICT|INTERRES
    43   15   24 2    
    44   16   19 1    
    45   16   47 1    
    46   17   23 1    
    47   17   25 2    
    48   18   20 1    
    49   19   48 1    
    50   21   49 1    
    51   22   50 1    
@<TRIPOS>SUBSTRUCTURE
     1 <0>         1 GROUP             0       ****    0 ROOT    
@<TRIPOS>MOLECULE
nram-ligand
50   51    1
SMALL
USER_CHARGES


@<TRIPOS>ATOM
      1 C1         28.2342  -12.8539   63.4611 C.3       1 <0>        -0.1800 
      2 C2         27.2365   -8.3751   63.5791 C.3       1 <0>        -0.1800 
      3 C3         33.3960  -10.7569   65.7543 C.ar      1 <0>        -0.1150 
      4 C4         33.2024   -9.6025   64.9862 C.ar      1 <0>        -0.1150 
      5 C5         31.2051  -11.5609   65.0987 C.ar      1 <0>        -0.1150 
      6 C6         30.9771   -6.2946   62.4545 C.3       1 <0>        -0.1200 
      7 C7         32.2965   -6.5678   61.7655 C.3       1 <0>        -0.1200 
      8 C8         27.6286  -11.4538   63.5678 C.3       1 <0>        -0.1200 
      9 C9         27.7367   -9.2119   64.7717 C.3       1 <0>        -0.1200 
     10 C10        34.2759   -7.9168   62.6236 C.3       1 <0>         0.1450 
     11 C11        32.5130   -9.1017   61.1386 C.3       1 <0>         0.1450 
     12 C12        32.4268  -11.7779   65.7718 C.ar      1 <0>        -0.1150 
     13 C13        32.0283   -9.4195   64.2253 C.ar      1 <0>        -0.0383 
     14 C14        30.9800  -10.3820   64.3447 C.ar      1 <0>         0.2000 
     15 C15        30.9879   -7.3200   63.5570 C.2       1 <0>         0.5000 
     16 C16        28.5009  -10.4978   64.3923 C.3       1 <0>         0.1400 
     17 C17        32.7636  -13.1134   66.3822 C.2       1 <0>         0.7150 
     18 C18        32.7770   -7.9839   62.2055 C.3       1 <0>         0.0700 
     19 N1         29.7488  -10.1991   63.6885 N.pl3     1 <0>        -0.7800 
     20 N2         31.9219   -8.2613   63.3826 N.am      1 <0>        -0.0317 
     21 O1         35.1028   -7.2547   61.6968 O.3       1 <0>        -0.6830 
     22 O2         32.3637   -8.6538   59.8005 O.3       1 <0>        -0.6830 
     23 O3         33.8744  -13.2546   66.9491 O.co2     1 <0>        -0.8000 
     24 O4         30.2099   -7.2547   64.4969 O.2       1 <0>        -0.5000 
     25 O5         31.9880  -14.0837   66.1998 O.co2     1 <0>        -0.8000 
     26 H1         27.5870  -13.5254   62.8976 H         1 <0>         0.0600 
     27 H2         28.3658  -13.2557   64.4624 H         1 <0>         0.0600 
     28 H3         29.2040  -12.8362   62.9619 H         1 <0>         0.0600 
     29 H4         26.7742   -7.4505   63.9241 H         1 <0>         0.0600 
     30 H5         28.0481   -8.1039   62.9043 H         1 <0>         0.0600 
     31 H6         26.4893   -8.9139   62.9959 H         1 <0>         0.0600 
     32 H7         34.3322  -10.8676   66.2764 H         1 <0>         0.1150 
     33 H8         33.9895   -8.8678   65.0070 H         1 <0>         0.1150 
     34 H9         30.4574  -12.3376   65.1168 H         1 <0>         0.1150 
     35 H10        30.1308   -6.4759   61.7923 H         1 <0>         0.0600 
     36 H11        30.9152   -5.2788   62.8390 H         1 <0>         0.0600 
     37 H12        32.1824   -6.4554   60.6926 H         1 <0>         0.0600 
     38 H13        32.9973   -5.7992   62.0965 H         1 <0>         0.0600 
     39 H14        27.4617  -11.0386   62.5744 H         1 <0>         0.0600 
     40 H15        26.6463  -11.5451   64.0282 H         1 <0>         0.0600 
     41 H16        26.8840   -9.4748   65.3977 H         1 <0>         0.0600 
     42 H17        28.3634   -8.6003   65.4172 H         1 <0>         0.0600 
     43 H18        34.3863   -7.3568   63.5526 H         1 <0>         0.0600 
     44 H19        34.6877   -8.9128   62.7914 H         1 <0>         0.0600 
     45 H20        33.3117   -9.8429   61.1612 H         1 <0>         0.0600 
     46 H21        31.5969   -9.6486   61.3685 H         1 <0>         0.0600 
     47 H22        28.7238  -10.9911   65.3382 H         1 <0>         0.0600 
     48 H23        29.6930   -9.4061   63.0713 H         1 <0>         0.3800 
     49 H24        35.0083   -6.3157   61.7966 H         1 <0>         0.4180 
     50 H25        33.2326   -8.4551   59.4451 H         1 <0>         0.4180 
@<TRIPOS>BOND
     1    1    8 1    
     2    1   26 1    
     3    1   27 1    
     4    1   28 1    
     5    2    9 1    
     6    2   29 1    
     7    2   30 1    
     8    2   31 1    
     9    3    4 ar   
    10    3   12 ar   
    11    3   32 1    
    12    4   13 ar   
    13    4   33 1    
    14    5   12 ar   
    15    5   14 ar   
    16    5   34 1    
    17    6    7 1    
    18    6   15 1    
    19    6   35 1    
    20    6   36 1    
    21    7   18 1    
    22    7   37 1    
    23    7   38 1    
    24    8   16 1    
    25    8   39 1    
    26    8   40 1    
    27    9   16 1    
    28    9   41 1    
    29    9   42 1    
    30   10   18 1    
    31   10   21 1    
    32   10   43 1    
    33   10   44 1    
    34   11   18 1    
    35   11   22 1    
    36   11   45 1    
    37   11   46 1    
    38   12   17 1    
    39   13   14 ar   
    40   13   20 1    
    41   14   19 1    
    42   15   20 am   BACKBONE|DICT|INTERRES
    43   15   24 2    
    44   16   19 1    
    45   16   47 1    
    46   17   23 1    
    47   17   25 2    
    48   18   20 1    
    49   19   48 1    
    50   21   49 1    
    51   22   50 1    
@<TRIPOS>SUBSTRUCTURE
     1 <0>         1 GROUP             0       ****    0 ROOT    
@<TRIPOS>MOLECULE
nram-ligand
50   51    1
SMALL
USER_CHARGES


@<TRIPOS>ATOM
      1 C1         28.6408  -12.4550   63.6969 C.3       1 <0>        -0.1800 
      2 C2         27.3390   -8.0557   63.7148 C.3       1 <0>        -0.1800 
      3 C3         33.7206  -10.7023   65.7163 C.ar      1 <0>        -0.1150 
      4 C4         33.5870   -9.5159   64.9826 C.ar      1 <0>        -0.1150 
      5 C5         31.3685  -11.1843   65.3831 C.ar      1 <0>        -0.1150 
      6 C6         31.8025   -5.9419   62.5969 C.3       1 <0>        -0.1200 
      7 C7         32.6773   -6.6960   61.6246 C.3       1 <0>        -0.1200 
      8 C8         27.9846  -11.0721   63.7385 C.3       1 <0>        -0.1200 
      9 C9         27.8066   -8.8324   64.9572 C.3       1 <0>        -0.1200 
     10 C10        34.1653   -8.6713   61.9030 C.3       1 <0>         0.1450 
     11 C11        31.6449   -9.0069   61.3418 C.3       1 <0>         0.1450 
     12 C12        32.6289  -11.5813   65.8814 C.ar      1 <0>        -0.1150 
     13 C13        32.3559   -9.1761   64.3930 C.ar      1 <0>        -0.0383 
     14 C14        31.2113   -9.9849   64.6413 C.ar      1 <0>         0.2000 
     15 C15        31.8795   -6.8501   63.7937 C.2       1 <0>         0.5000 
     16 C16        28.6952  -10.0558   64.6595 C.3       1 <0>         0.1400 
     17 C17        32.8450  -12.9653   66.4446 C.2       1 <0>         0.7150 
     18 C18        32.7153   -8.1688   62.0811 C.3       1 <0>         0.0700 
     19 N1         29.9673   -9.6141   64.0969 N.pl3     1 <0>        -0.7800 
     20 N2         32.3346   -8.0685   63.4931 N.am      1 <0>        -0.0317 
     21 O1         34.2851  -10.0546   62.0969 O.3       1 <0>        -0.6830 
     22 O2         31.7012   -8.8693   59.9317 O.3       1 <0>        -0.6830 
     23 O3         31.9549  -13.8391   66.2939 O.co2     1 <0>        -0.8000 
     24 O4         31.5636   -6.4546   64.8975 O.2       1 <0>        -0.5000 
     25 O5         33.9636  -13.2546   66.9338 O.co2     1 <0>        -0.8000 
     26 H1         28.0775  -13.1294   63.0517 H         1 <0>         0.0600 
     27 H2         28.6773  -12.8992   64.6905 H         1 <0>         0.0600 
     28 H3         29.6560  -12.4016   63.3018 H         1 <0>         0.0600 
     29 H4         26.6631   -7.2546   64.0043 H         1 <0>         0.0600 
     30 H5         28.1771   -7.6112   63.1778 H         1 <0>         0.0600 
     31 H6         26.7905   -8.6891   63.0180 H         1 <0>         0.0600 
     32 H7         34.7034  -10.9568   66.0706 H         1 <0>         0.1150 
     33 H8         34.4640   -8.9060   64.8176 H         1 <0>         0.1150 
     34 H9         30.5375  -11.8544   65.5234 H         1 <0>         0.1150 
     35 H10        30.7713   -5.8750   62.2486 H         1 <0>         0.0600 
     36 H11        32.1800   -4.9425   62.8154 H         1 <0>         0.0600 
     37 H12        32.3286   -6.5767   60.6017 H         1 <0>         0.0600 
     38 H13        33.6757   -6.2606   61.6969 H         1 <0>         0.0600 
     39 H14        27.9235  -10.6800   62.7234 H         1 <0>         0.0600 
     40 H15        26.9551  -11.2035   64.0722 H         1 <0>         0.0600 
     41 H16        26.9317   -9.1606   65.5181 H         1 <0>         0.0600 
     42 H17        28.3405   -8.1537   65.6235 H         1 <0>         0.0600 
     43 H18        34.5076   -8.4514   60.8969 H         1 <0>         0.0600 
     44 H19        34.8525   -8.1566   62.5762 H         1 <0>         0.0600 
     45 H20        31.6960  -10.0546   61.6200 H         1 <0>         0.0600 
     46 H21        30.6680   -8.6841   61.6959 H         1 <0>         0.0600 
     47 H22        28.8677  -10.5312   65.6245 H         1 <0>         0.0600 
     48 H23        29.9355   -8.7526   63.5767 H         1 <0>         0.3800 
     49 H24        33.6468  -10.5146   61.5583 H         1 <0>         0.4180 
     50 H25        32.5508   -9.1530   59.6215 H         1 <0>         0.4180 
@<TRIPOS>BOND
     1    1    8 1    
     2    1   26 1    
     3    1   27 1    
     4    1   28 1    
     5    2    9 1    
     6    2   29 1    
     7    2   30 1    
     8    2   31 1    
     9    3    4 ar   
    10    3   12 ar   
    11    3   32 1    
    12    4   13 ar   
    13    4   33 1    
    14    5   12 ar   
    15    5   14 ar   
    16    5   34 1    
    17    6    7 1    
    18    6   15 1    
    19    6   35 1    
    20    6   36 1    
    21    7   18 1    
    22    7   37 1    
    23    7   38 1    
    24    8   16 1    
    25    8   39 1    
    26    8   40 1    
    27    9   16 1    
    28    9   41 1    
    29    9   42 1    
    30   10   18 1    
    31   10   21 1    
    32   10   43 1    
    33   10   44 1    
    34   11   18 1    
    35   11   22 1    
    36   11   45 1    
    37   11   46 1    
    38   12   17 1    
    39   13   14 ar   
    40   13   20 1    
    41   14   19 1    
    42   15   20 am   BACKBONE|DICT|INTERRES
    43   15   24 2    
    44   16   19 1    
    45   16   47 1    
    46   17   23 1    
    47   17   25 2    
    48   18   20 1    
    49   19   48 1    
    50   21   49 1    
    51   22   50 1    
@<TRIPOS>SUBSTRUCTURE
     1 <0>         1 GROUP             0       ****    0 ROOT    
@<TRIPOS>MOLECULE
nram-ligand
50   51    1
SMALL
USER_CHARGES


@<TRIPOS>ATOM
      1 C1         27.0602   -8.8568   63.3983 C.3       1 <0>        -0.1800 
      2 C2         28.5931   -9.8997   66.3359 C.3       1 <0>        -0.1800 
      3 C3         33.2508  -10.8546   65.8124 C.ar      1 <0>        -0.1150 
      4 C4         33.0424   -9.7165   65.0247 C.ar      1 <0>        -0.1150 
      5 C5         31.2125  -11.8433   64.9348 C.ar      1 <0>        -0.1150 
      6 C6         30.7393   -6.4163   62.7168 C.3       1 <0>        -0.1200 
      7 C7         32.0429   -6.5895   61.9510 C.3       1 <0>        -0.1200 
      8 C8         27.2892  -10.3560   63.1620 C.3       1 <0>        -0.1200 
      9 C9         28.2118  -11.1133   65.4695 C.3       1 <0>        -0.1200 
     10 C10        34.0801   -7.9678   62.6300 C.3       1 <0>         0.1450 
     11 C11        32.3370   -9.0342   61.0806 C.3       1 <0>         0.1450 
     12 C12        32.3726  -11.9531   65.7316 C.ar      1 <0>        -0.1150 
     13 C13        31.9221   -9.6251   64.1769 C.ar      1 <0>        -0.0383 
     14 C14        30.9504  -10.6677   64.1927 C.ar      1 <0>         0.2000 
     15 C15        30.7723   -7.5620   63.6940 C.2       1 <0>         0.5000 
     16 C16        28.4489  -11.0388   63.9310 C.3       1 <0>         0.1400 
     17 C17        32.7628  -13.2545   66.3765 C.2       1 <0>         0.7150 
     18 C18        32.5744   -8.0246   62.2486 C.3       1 <0>         0.0700 
     19 N1         29.7427  -10.5166   63.4879 N.pl3     1 <0>        -0.7800 
     20 N2         31.7438   -8.4347   63.4078 N.am      1 <0>        -0.0317 
     21 O1         34.8597   -7.2556   61.6946 O.3       1 <0>        -0.6830 
     22 O2         32.3636   -8.4721   59.7772 O.3       1 <0>        -0.6830 
     23 O3         32.1007  -14.2892   66.1150 O.co2     1 <0>        -0.8000 
     24 O4         29.9750   -7.6535   64.6258 O.2       1 <0>        -0.5000 
     25 O5         33.8125  -13.3001   67.0599 O.co2     1 <0>        -0.8000 
     26 H1         26.2601   -8.4892   62.7531 H         1 <0>         0.0600 
     27 H2         27.9483   -8.2750   63.1641 H         1 <0>         0.0600 
     28 H3         26.7636   -8.6369   64.4207 H         1 <0>         0.0600 
     29 H4         28.2998  -10.0673   67.3714 H         1 <0>         0.0600 
     30 H5         29.6685   -9.7275   66.3421 H         1 <0>         0.0600 
     31 H6         28.1144   -8.9793   66.0139 H         1 <0>         0.0600 
     32 H7         34.1318  -10.8930   66.4321 H         1 <0>         0.1150 
     33 H8         33.7547   -8.9113   65.1089 H         1 <0>         0.1150 
     34 H9         30.5353  -12.6803   64.8635 H         1 <0>         0.1150 
     35 H10        29.8724   -6.5232   62.0686 H         1 <0>         0.0600 
     36 H11        30.6845   -5.4597   63.2270 H         1 <0>         0.0600 
     37 H12        31.8943   -6.3781   60.8959 H         1 <0>         0.0600 
     38 H13        32.7458   -5.8352   62.3091 H         1 <0>         0.0600 
     39 H14        26.3625  -10.8976   63.3515 H         1 <0>         0.0600 
     40 H15        27.4688  -10.4545   62.0971 H         1 <0>         0.0600 
     41 H16        27.1635  -11.3398   65.6407 H         1 <0>         0.0600 
     42 H17        28.7285  -11.9789   65.8764 H         1 <0>         0.0600 
     43 H18        34.2069   -7.4404   63.5759 H         1 <0>         0.0600 
     44 H19        34.5039   -8.9655   62.7546 H         1 <0>         0.0600 
     45 H20        33.0744   -9.8355   61.1206 H         1 <0>         0.0600 
     46 H21        31.3622   -9.5126   61.1802 H         1 <0>         0.0600 
     47 H22        28.4425  -12.0722   63.5814 H         1 <0>         0.0600 
     48 H23        29.7035   -9.8077   62.7673 H         1 <0>         0.3800 
     49 H24        34.7951   -7.6545   60.8349 H         1 <0>         0.4180 
     50 H25        33.2640   -8.3981   59.4583 H         1 <0>         0.4180 
@<TRIPOS>BOND
     1    1    8 1    
     2    1   26 1    
     3    1   27 1    
     4    1   28 1    
     5    2    9 1    
     6    2   29 1    
     7    2   30 1    
     8    2   31 1    
     9    3    4 ar   
    10    3   12 ar   
    11    3   32 1    
    12    4   13 ar   
    13    4   33 1    
    14    5   12 ar   
    15    5   14 ar   
    16    5   34 1    
    17    6    7 1    
    18    6   15 1    
    19    6   35 1    
    20    6   36 1    
    21    7   18 1    
    22    7   37 1    
    23    7   38 1    
    24    8   16 1    
    25    8   39 1    
    26    8   40 1    
    27    9   16 1    
    28    9   41 1    
    29    9   42 1    
    30   10   18 1    
    31   10   21 1    
    32   10   43 1    
    33   10   44 1    
    34   11   18 1    
    35   11   22 1    
    36   11   45 1    
    37   11   46 1    
    38   12   17 1    
    39   13   14 ar   
    40   13   20 1    
    41   14   19 1    
    42   15   20 am   BACKBONE|DICT|INTERRES
    43   15   24 2    
    44   16   19 1    
    45   16   47 1    
    46   17   23 1    
    47   17   25 2    
    48   18   20 1    
    49   19   48 1    
    50   21   49 1    
    51   22   50 1    
@<TRIPOS>SUBSTRUCTURE
     1 <0>         1 GROUP             0       ****    0 ROOT    
@<TRIPOS>MOLECULE
nram-ligand
50   51    1
SMALL
USER_CHARGES


@<TRIPOS>ATOM
      1 C1         27.8820   -8.1579   66.1278 C.3       1 <0>        -0.1800 
      2 C2         26.6637   -8.2563   63.0648 C.3       1 <0>        -0.1800 
      3 C3         33.3539  -10.8546   65.8091 C.ar      1 <0>        -0.1150 
      4 C4         33.2933   -9.6634   65.0635 C.ar      1 <0>        -0.1150 
      5 C5         31.2082  -11.5342   64.8968 C.ar      1 <0>        -0.1150 
      6 C6         31.9285   -5.9652   62.8008 C.3       1 <0>        -0.1200 
      7 C7         32.6940   -6.6679   61.6970 C.3       1 <0>        -0.1200 
      8 C8         28.8809   -9.1388   65.5056 C.3       1 <0>        -0.1200 
      9 C9         27.5922   -9.4635   63.2857 C.3       1 <0>        -0.1200 
     10 C10        34.1919   -8.6653   61.9234 C.3       1 <0>         0.1450 
     11 C11        31.7707   -8.9581   61.0769 C.3       1 <0>         0.1450 
     12 C12        32.3358  -11.8270   65.6969 C.ar      1 <0>        -0.1150 
     13 C13        32.1978   -9.4035   64.2135 C.ar      1 <0>        -0.0383 
     14 C14        31.1187  -10.3269   64.1724 C.ar      1 <0>         0.2000 
     15 C15        31.8864   -7.0259   63.8681 C.2       1 <0>         0.5000 
     16 C16        28.9526   -9.1432   63.9514 C.3       1 <0>         0.1400 
     17 C17        32.5002  -13.1971   66.3033 C.2       1 <0>         0.7150 
     18 C18        32.7256   -8.1830   62.0184 C.3       1 <0>         0.0700 
     19 N1         29.9402  -10.1003   63.4455 N.pl3     1 <0>        -0.7800 
     20 N2         32.2332   -8.2289   63.4068 N.am      1 <0>        -0.0317 
     21 O1         34.3124  -10.0546   62.0969 O.3       1 <0>        -0.6830 
     22 O2         31.9780   -8.7085   59.6969 O.3       1 <0>        -0.6830 
     23 O3         33.5636  -13.4948   66.8969 O.co2     1 <0>        -0.8000 
     24 O4         31.5636   -6.7629   65.0164 O.2       1 <0>        -0.5000 
     25 O5         31.6111  -14.0558   66.0970 O.co2     1 <0>        -0.8000 
     26 H1         28.0637   -8.0545   67.1975 H         1 <0>         0.0600 
     27 H2         26.8579   -8.5119   66.0135 H         1 <0>         0.0600 
     28 H3         27.9630   -7.1718   65.6729 H         1 <0>         0.0600 
     29 H4         25.7821   -8.5545   62.4971 H         1 <0>         0.0600 
     30 H5         26.3068   -7.8130   63.9905 H         1 <0>         0.0600 
     31 H6         27.1637   -7.4724   62.4978 H         1 <0>         0.0600 
     32 H7         34.2254  -11.0377   66.4146 H         1 <0>         0.1150 
     33 H8         34.1166   -8.9654   65.1206 H         1 <0>         0.1150 
     34 H9         30.4089  -12.2560   64.8133 H         1 <0>         0.1150 
     35 H10        30.9131   -5.7150   62.4918 H         1 <0>         0.0600 
     36 H11        32.4344   -5.0631   63.1459 H         1 <0>         0.0600 
     37 H12        32.2373   -6.4546   60.7335 H         1 <0>         0.0600 
     38 H13        33.7054   -6.2593   61.6969 H         1 <0>         0.0600 
     39 H14        29.8590   -8.8767   65.9114 H         1 <0>         0.0600 
     40 H15        28.6645  -10.1434   65.8714 H         1 <0>         0.0600 
     41 H16        27.7711   -9.9013   62.3027 H         1 <0>         0.0600 
     42 H17        27.0743  -10.2405   63.8485 H         1 <0>         0.0600 
     43 H18        34.5959   -8.4175   60.9431 H         1 <0>         0.0600 
     44 H19        34.8242   -8.1643   62.6581 H         1 <0>         0.0600 
     45 H20        31.7817  -10.0278   61.2617 H         1 <0>         0.0600 
     46 H21        30.7636   -8.6459   61.3081 H         1 <0>         0.0600 
     47 H22        29.2731   -8.1593   63.6099 H         1 <0>         0.0600 
     48 H23        29.5146  -10.9411   63.0751 H         1 <0>         0.3800 
     49 H24        33.6783  -10.5043   61.5447 H         1 <0>         0.4180 
     50 H25        32.8920   -8.8429   59.4742 H         1 <0>         0.4180 
@<TRIPOS>BOND
     1    1    8 1    
     2    1   26 1    
     3    1   27 1    
     4    1   28 1    
     5    2    9 1    
     6    2   29 1    
     7    2   30 1    
     8    2   31 1    
     9    3    4 ar   
    10    3   12 ar   
    11    3   32 1    
    12    4   13 ar   
    13    4   33 1    
    14    5   12 ar   
    15    5   14 ar   
    16    5   34 1    
    17    6    7 1    
    18    6   15 1    
    19    6   35 1    
    20    6   36 1    
    21    7   18 1    
    22    7   37 1    
    23    7   38 1    
    24    8   16 1    
    25    8   39 1    
    26    8   40 1    
    27    9   16 1    
    28    9   41 1    
    29    9   42 1    
    30   10   18 1    
    31   10   21 1    
    32   10   43 1    
    33   10   44 1    
    34   11   18 1    
    35   11   22 1    
    36   11   45 1    
    37   11   46 1    
    38   12   17 1    
    39   13   14 ar   
    40   13   20 1    
    41   14   19 1    
    42   15   20 am   BACKBONE|DICT|INTERRES
    43   15   24 2    
    44   16   19 1    
    45   16   47 1    
    46   17   23 1    
    47   17   25 2    
    48   18   20 1    
    49   19   48 1    
    50   21   49 1    
    51   22   50 1    
@<TRIPOS>SUBSTRUCTURE
     1 <0>         1 GROUP             0       ****    0 ROOT    
@<TRIPOS>MOLECULE
nram-ligand
50   51    1
SMALL
USER_CHARGES


@<TRIPOS>ATOM
      1 C1         27.1757   -8.1807   63.9115 C.3       1 <0>        -0.1800 
      2 C2         28.0357  -12.5631   63.9306 C.3       1 <0>        -0.1800 
      3 C3         33.2366  -10.6848   65.8390 C.ar      1 <0>        -0.1150 
      4 C4         33.1116   -9.5623   64.9999 C.ar      1 <0>        -0.1150 
      5 C5         31.2923  -11.6635   64.7790 C.ar      1 <0>        -0.1150 
      6 C6         32.0079   -6.1132   62.4004 C.3       1 <0>        -0.1200 
      7 C7         32.8144   -6.8789   61.3678 C.3       1 <0>        -0.1200 
      8 C8         28.6129   -8.6776   63.7507 C.3       1 <0>        -0.1200 
      9 C9         28.1571  -11.1235   64.4462 C.3       1 <0>        -0.1200 
     10 C10        34.4126   -8.6402   62.2008 C.3       1 <0>         0.1450 
     11 C11        32.4336   -9.3815   60.7758 C.3       1 <0>         0.1450 
     12 C12        32.3637  -11.7822   65.6970 C.ar      1 <0>        -0.1150 
     13 C13        32.1059   -9.4925   64.0080 C.ar      1 <0>        -0.0383 
     14 C14        31.1388  -10.5304   63.9431 C.ar      1 <0>         0.2000 
     15 C15        31.7193   -7.1607   63.4504 C.2       1 <0>         0.5000 
     16 C16        28.7324  -10.1649   63.3843 C.3       1 <0>         0.1400 
     17 C17        32.6778  -13.1115   66.3425 C.2       1 <0>         0.7150 
     18 C18        32.9249   -8.3466   61.8488 C.3       1 <0>         0.0700 
     19 N1         30.1002  -10.5029   62.9950 N.pl3     1 <0>        -0.7800 
     20 N2         32.1162   -8.3912   63.0896 N.am      1 <0>        -0.0317 
     21 O1         34.9627   -7.6549   63.0652 O.3       1 <0>        -0.6830 
     22 O2         31.9637   -8.8630   59.5424 O.3       1 <0>        -0.6830 
     23 O3         33.7427  -13.2539   66.9898 O.co2     1 <0>        -0.8000 
     24 O4         31.1634   -6.8540   64.4995 O.2       1 <0>        -0.5000 
     25 O5         31.9346  -14.0925   66.0979 O.co2     1 <0>        -0.8000 
     26 H1         27.1471   -7.0932   63.9080 H         1 <0>         0.0600 
     27 H2         26.7609   -8.5173   64.8585 H         1 <0>         0.0600 
     28 H3         26.5371   -8.5308   63.1002 H         1 <0>         0.0600 
     29 H4         27.9633  -13.2552   64.7680 H         1 <0>         0.0600 
     30 H5         27.1571  -12.6783   63.2970 H         1 <0>         0.0600 
     31 H6         28.8940  -12.8700   63.3341 H         1 <0>         0.0600 
     32 H7         34.0553  -10.7201   66.5403 H         1 <0>         0.1150 
     33 H8         33.8358   -8.7672   65.0980 H         1 <0>         0.1150 
     34 H9         30.6269  -12.5000   64.6565 H         1 <0>         0.1150 
     35 H10        31.0726   -5.7318   61.9861 H         1 <0>         0.0600 
     36 H11        32.5745   -5.2839   62.8269 H         1 <0>         0.0600 
     37 H12        32.3472   -6.7547   60.3988 H         1 <0>         0.0600 
     38 H13        33.8110   -6.4545   61.2900 H         1 <0>         0.0600 
     39 H14        29.0727   -8.0920   62.9554 H         1 <0>         0.0600 
     40 H15        29.1700   -8.4718   64.6646 H         1 <0>         0.0600 
     41 H16        28.7562  -11.0894   65.3563 H         1 <0>         0.0600 
     42 H17        27.1641  -10.7982   64.7497 H         1 <0>         0.0600 
     43 H18        34.5321   -9.6274   62.6478 H         1 <0>         0.0600 
     44 H19        35.0191   -8.6441   61.2968 H         1 <0>         0.0600 
     45 H20        33.2514  -10.0540   60.5140 H         1 <0>         0.0600 
     46 H21        31.6525  -10.0445   61.1415 H         1 <0>         0.0600 
     47 H22        28.1339  -10.3071   62.4855 H         1 <0>         0.0600 
     48 H23        30.1327  -11.2553   62.3141 H         1 <0>         0.3800 
     49 H24        35.1892   -6.8919   62.5543 H         1 <0>         0.4180 
     50 H25        32.7160   -8.5765   59.0368 H         1 <0>         0.4180 
@<TRIPOS>BOND
     1    1    8 1    
     2    1   26 1    
     3    1   27 1    
     4    1   28 1    
     5    2    9 1    
     6    2   29 1    
     7    2   30 1    
     8    2   31 1    
     9    3    4 ar   
    10    3   12 ar   
    11    3   32 1    
    12    4   13 ar   
    13    4   33 1    
    14    5   12 ar   
    15    5   14 ar   
    16    5   34 1    
    17    6    7 1    
    18    6   15 1    
    19    6   35 1    
    20    6   36 1    
    21    7   18 1    
    22    7   37 1    
    23    7   38 1    
    24    8   16 1    
    25    8   39 1    
    26    8   40 1    
    27    9   16 1    
    28    9   41 1    
    29    9   42 1    
    30   10   18 1    
    31   10   21 1    
    32   10   43 1    
    33   10   44 1    
    34   11   18 1    
    35   11   22 1    
    36   11   45 1    
    37   11   46 1    
    38   12   17 1    
    39   13   14 ar   
    40   13   20 1    
    41   14   19 1    
    42   15   20 am   BACKBONE|DICT|INTERRES
    43   15   24 2    
    44   16   19 1    
    45   16   47 1    
    46   17   23 1    
    47   17   25 2    
    48   18   20 1    
    49   19   48 1    
    50   21   49 1    
    51   22   50 1    
@<TRIPOS>SUBSTRUCTURE
     1 <0>         1 GROUP             0       ****    0 ROOT    
@<TRIPOS>MOLECULE
nram-ligand
50   51    1
SMALL
USER_CHARGES


@<TRIPOS>ATOM
      1 C1         27.3845   -8.0833   65.0149 C.3       1 <0>        -0.1800 
      2 C2         27.9769  -12.4142   63.8653 C.3       1 <0>        -0.1800 
      3 C3         33.2635  -10.8633   65.9072 C.ar      1 <0>        -0.1150 
      4 C4         33.2033   -9.6787   65.1534 C.ar      1 <0>        -0.1150 
      5 C5         31.2542  -11.6543   64.8003 C.ar      1 <0>        -0.1150 
      6 C6         31.9820   -5.9834   62.9125 C.3       1 <0>        -0.1200 
      7 C7         32.6832   -6.6768   61.7582 C.3       1 <0>        -0.1200 
      8 C8         28.7550   -8.5934   64.5506 C.3       1 <0>        -0.1200 
      9 C9         28.1437  -11.0982   64.6415 C.3       1 <0>        -0.1200 
     10 C10        34.1988   -8.6613   61.9745 C.3       1 <0>         0.1450 
     11 C11        31.7887   -8.9486   61.0650 C.3       1 <0>         0.1450 
     12 C12        32.3177  -11.8889   65.6970 C.ar      1 <0>        -0.1150 
     13 C13        32.1691   -9.4704   64.2144 C.ar      1 <0>        -0.0383 
     14 C14        31.1409  -10.4439   64.0825 C.ar      1 <0>         0.2000 
     15 C15        31.8994   -7.0825   63.9384 C.2       1 <0>         0.5000 
     16 C16        28.7270   -9.9406   63.7970 C.3       1 <0>         0.1400 
     17 C17        32.4980  -13.2550   66.3047 C.2       1 <0>         0.7150 
     18 C18        32.7221   -8.1980   62.0509 C.3       1 <0>         0.0700 
     19 N1         30.0397  -10.2610   63.2271 N.pl3     1 <0>        -0.7800 
     20 N2         32.2092   -8.2787   63.4322 N.am      1 <0>        -0.0317 
     21 O1         34.3567  -10.0546   62.0970 O.3       1 <0>        -0.6830 
     22 O2         32.0118   -8.6450   59.6977 O.3       1 <0>        -0.6830 
     23 O3         33.5636  -13.5376   66.8975 O.co2     1 <0>        -0.8000 
     24 O4         31.5625   -6.8546   65.0932 O.2       1 <0>        -0.5000 
     25 O5         31.6249  -14.1294   66.0972 O.co2     1 <0>        -0.8000 
     26 H1         27.4809   -7.0911   65.4534 H         1 <0>         0.0600 
     27 H2         26.9463   -8.7244   65.7795 H         1 <0>         0.0600 
     28 H3         26.6851   -8.0150   64.1807 H         1 <0>         0.0600 
     29 H4         27.9641  -13.2551   64.5558 H         1 <0>         0.0600 
     30 H5         27.0463  -12.4163   63.2973 H         1 <0>         0.0600 
     31 H6         28.7862  -12.6016   63.1600 H         1 <0>         0.0600 
     32 H7         34.0776  -10.9989   66.6004 H         1 <0>         0.1150 
     33 H8         33.9782   -8.9352   65.2818 H         1 <0>         0.1150 
     34 H9         30.5357  -12.4390   64.6307 H         1 <0>         0.1150 
     35 H10        30.9778   -5.6594   62.6373 H         1 <0>         0.0600 
     36 H11        32.5472   -5.1277   63.2847 H         1 <0>         0.0600 
     37 H12        32.1686   -6.4547   60.8268 H         1 <0>         0.0600 
     38 H13        33.6928   -6.2698   61.6964 H         1 <0>         0.0600 
     39 H14        29.1753   -7.8385   63.8869 H         1 <0>         0.0600 
     40 H15        29.4226   -8.6582   65.4116 H         1 <0>         0.0600 
     41 H16        28.7536  -11.2616   65.5293 H         1 <0>         0.0600 
     42 H17        27.1638  -10.8254   65.0268 H         1 <0>         0.0600 
     43 H18        34.6247   -8.3675   61.0163 H         1 <0>         0.0600 
     44 H19        34.8028   -8.1734   62.7418 H         1 <0>         0.0600 
     45 H20        31.8308  -10.0243   61.1982 H         1 <0>         0.0600 
     46 H21        30.7653   -8.6722   61.2970 H         1 <0>         0.0600 
     47 H22        28.0680   -9.8118   62.9362 H         1 <0>         0.0600 
     48 H23        29.9561  -10.9987   62.5358 H         1 <0>         0.3800 
     49 H24        33.7263  -10.4994   61.5383 H         1 <0>         0.4180 
     50 H25        32.9323   -8.7493   59.4824 H         1 <0>         0.4180 
@<TRIPOS>BOND
     1    1    8 1    
     2    1   26 1    
     3    1   27 1    
     4    1   28 1    
     5    2    9 1    
     6    2   29 1    
     7    2   30 1    
     8    2   31 1    
     9    3    4 ar   
    10    3   12 ar   
    11    3   32 1    
    12    4   13 ar   
    13    4   33 1    
    14    5   12 ar   
    15    5   14 ar   
    16    5   34 1    
    17    6    7 1    
    18    6   15 1    
    19    6   35 1    
    20    6   36 1    
    21    7   18 1    
    22    7   37 1    
    23    7   38 1    
    24    8   16 1    
    25    8   39 1    
    26    8   40 1    
    27    9   16 1    
    28    9   41 1    
    29    9   42 1    
    30   10   18 1    
    31   10   21 1    
    32   10   43 1    
    33   10   44 1    
    34   11   18 1    
    35   11   22 1    
    36   11   45 1    
    37   11   46 1    
    38   12   17 1    
    39   13   14 ar   
    40   13   20 1    
    41   14   19 1    
    42   15   20 am   BACKBONE|DICT|INTERRES
    43   15   24 2    
    44   16   19 1    
    45   16   47 1    
    46   17   23 1    
    47   17   25 2    
    48   18   20 1    
    49   19   48 1    
    50   21   49 1    
    51   22   50 1    
@<TRIPOS>SUBSTRUCTURE
     1 <0>         1 GROUP             0       ****    0 ROOT    
@<TRIPOS>MOLECULE
nram-ligand
50   51    1
SMALL
USER_CHARGES


@<TRIPOS>ATOM
      1 C1         27.7798   -8.5772   66.0145 C.3       1 <0>        -0.1800 
      2 C2         27.1571  -11.5291   63.6969 C.3       1 <0>        -0.1800 
      3 C3         33.2127  -11.0581   66.0610 C.ar      1 <0>        -0.1150 
      4 C4         33.1720   -9.8838   65.2916 C.ar      1 <0>        -0.1150 
      5 C5         31.2152  -11.8678   64.9411 C.ar      1 <0>        -0.1150 
      6 C6         31.7847   -6.1389   63.2674 C.3       1 <0>        -0.1200 
      7 C7         32.5865   -6.6907   62.0968 C.3       1 <0>        -0.1200 
      8 C8         28.8239   -9.5719   65.4888 C.3       1 <0>        -0.1200 
      9 C9         27.5790  -10.1043   63.2970 C.3       1 <0>        -0.1200 
     10 C10        34.1778   -8.6576   62.1862 C.3       1 <0>         0.1450 
     11 C11        31.7968   -8.9300   61.2049 C.3       1 <0>         0.1450 
     12 C12        32.2760  -12.0904   65.8486 C.ar      1 <0>        -0.1150 
     13 C13        32.1497   -9.6825   64.3411 C.ar      1 <0>        -0.0383 
     14 C14        31.1303  -10.6635   64.2077 C.ar      1 <0>         0.2000 
     15 C15        31.6604   -7.3357   64.1782 C.2       1 <0>         0.5000 
     16 C16        28.9052   -9.6400   63.9352 C.3       1 <0>         0.1400 
     17 C17        32.4790  -13.4324   66.4966 C.2       1 <0>         0.7150 
     18 C18        32.6861   -8.2356   62.2677 C.3       1 <0>         0.0700 
     19 N1         29.9956  -10.4658   63.4109 N.pl3     1 <0>        -0.7800 
     20 N2         32.1343   -8.4513   63.6210 N.am      1 <0>        -0.0317 
     21 O1         34.3553  -10.0546   62.0970 O.3       1 <0>        -0.6830 
     22 O2         32.0672   -8.5149   59.8755 O.3       1 <0>        -0.6830 
     23 O3         33.5583  -13.6545   67.0936 O.co2     1 <0>        -0.8000 
     24 O4         31.1637   -7.2546   65.2969 O.2       1 <0>        -0.5000 
     25 O5         31.6293  -14.3384   66.3240 O.co2     1 <0>        -0.8000 
     26 H1         27.8501   -8.4869   67.0987 H         1 <0>         0.0600 
     27 H2         26.7644   -8.8939   65.7818 H         1 <0>         0.0600 
     28 H3         27.9322   -7.5873   65.5852 H         1 <0>         0.0600 
     29 H4         26.1723  -11.7666   63.2974 H         1 <0>         0.0600 
     30 H5         27.8523  -12.2725   63.3062 H         1 <0>         0.0600 
     31 H6         27.1068  -11.6576   64.7758 H         1 <0>         0.0600 
     32 H7         33.9993  -11.1767   66.7847 H         1 <0>         0.1150 
     33 H8         33.9302   -9.1294   65.4445 H         1 <0>         0.1150 
     34 H9         30.4622  -12.6283   64.7960 H         1 <0>         0.1150 
     35 H10        30.7940   -5.8087   62.9539 H         1 <0>         0.0600 
     36 H11        32.2986   -5.3138   63.7621 H         1 <0>         0.0600 
     37 H12        32.1059   -6.4005   61.1639 H         1 <0>         0.0600 
     38 H13        33.5724   -6.2258   62.0941 H         1 <0>         0.0600 
     39 H14        29.7797   -9.2644   65.9084 H         1 <0>         0.0600 
     40 H15        28.6409  -10.5579   65.9140 H         1 <0>         0.0600 
     41 H16        26.7801   -9.4083   63.5499 H         1 <0>         0.0600 
     42 H17        27.6657  -10.0548   62.2106 H         1 <0>         0.0600 
     43 H18        34.6369   -8.2230   61.2976 H         1 <0>         0.0600 
     44 H19        34.7440   -8.2800   63.0389 H         1 <0>         0.0600 
     45 H20        31.8403  -10.0119   61.2677 H         1 <0>         0.0600 
     46 H21        30.7639   -8.6822   61.4163 H         1 <0>         0.0600 
     47 H22        29.0996   -8.6302   63.5737 H         1 <0>         0.0600 
     48 H23        29.6557  -11.2990   62.9476 H         1 <0>         0.3800 
     49 H24        33.7154  -10.4197   61.4944 H         1 <0>         0.4180 
     50 H25        32.9838   -8.6504   59.6630 H         1 <0>         0.4180 
@<TRIPOS>BOND
     1    1    8 1    
     2    1   26 1    
     3    1   27 1    
     4    1   28 1    
     5    2    9 1    
     6    2   29 1    
     7    2   30 1    
     8    2   31 1    
     9    3    4 ar   
    10    3   12 ar   
    11    3   32 1    
    12    4   13 ar   
    13    4   33 1    
    14    5   12 ar   
    15    5   14 ar   
    16    5   34 1    
    17    6    7 1    
    18    6   15 1    
    19    6   35 1    
    20    6   36 1    
    21    7   18 1    
    22    7   37 1    
    23    7   38 1    
    24    8   16 1    
    25    8   39 1    
    26    8   40 1    
    27    9   16 1    
    28    9   41 1    
    29    9   42 1    
    30   10   18 1    
    31   10   21 1    
    32   10   43 1    
    33   10   44 1    
    34   11   18 1    
    35   11   22 1    
    36   11   45 1    
    37   11   46 1    
    38   12   17 1    
    39   13   14 ar   
    40   13   20 1    
    41   14   19 1    
    42   15   20 am   BACKBONE|DICT|INTERRES
    43   15   24 2    
    44   16   19 1    
    45   16   47 1    
    46   17   23 1    
    47   17   25 2    
    48   18   20 1    
    49   19   48 1    
    50   21   49 1    
    51   22   50 1    
@<TRIPOS>SUBSTRUCTURE
     1 <0>         1 GROUP             0       ****    0 ROOT    
