@<TRIPOS>MOLECULE
pa2ga-ligand
72   74    1
SMALL
USER_CHARGES


@<TRIPOS>ATOM
      1 C1        -44.0251   60.7290   35.4090 C.ar      1 <0>        -0.1150 
      2 C2        -30.6634   69.8373   27.6239 C.ar      1 <0>        -0.1150 
      3 C3        -43.7009   60.1218   34.1813 C.ar      1 <0>        -0.1150 
      4 C4        -43.0040   61.0478   36.3244 C.ar      1 <0>        -0.1150 
      5 C5        -31.6774   70.1203   26.6881 C.ar      1 <0>        -0.1150 
      6 C6        -30.6479   70.5044   28.8638 C.ar      1 <0>        -0.1150 
      7 C7        -42.3630   59.8210   33.8746 C.ar      1 <0>        -0.1150 
      8 C8        -41.6611   60.7588   36.0145 C.ar      1 <0>        -0.1150 
      9 C9        -32.6719   71.0685   26.9885 C.ar      1 <0>        -0.1150 
     10 C10       -31.6453   71.4521   29.1689 C.ar      1 <0>        -0.1150 
     11 C11       -35.2076   71.0311   29.8220 C.ar      1 <0>        -0.1150 
     12 C12       -36.1641   72.1322   27.8721 C.ar      1 <0>        -0.1150 
     13 C13       -36.3694   70.2512   29.9390 C.ar      1 <0>        -0.1150 
     14 C14       -37.3352   71.3582   27.9977 C.ar      1 <0>        -0.1150 
     15 C15       -38.0879   60.5517   32.7504 C.3       1 <0>        -0.1200 
     16 C16       -37.5563   61.6852   31.8651 C.3       1 <0>        -0.1200 
     17 C17       -39.3092   60.9903   33.5713 C.3       1 <0>        -0.1200 
     18 C18       -36.7090   62.7045   32.6333 C.3       1 <0>        -0.1200 
     19 C19       -39.8961   59.8626   34.4258 C.3       1 <0>        -0.0050 
     20 C20       -38.4446   68.0896   32.2018 C.3       1 <0>        -0.1200 
     21 C21       -36.5602   64.0461   31.8906 C.3       1 <0>        -0.1200 
     22 C22       -39.5173   69.1938   32.4032 C.3       1 <0>        -0.2200 
     23 C23       -33.7820   72.7031   28.5749 C.3       1 <0>         0.1100 
     24 C24       -38.1978   67.7294   29.5725 C.3       1 <0>         0.0475 
     25 C25       -41.3381   60.1437   34.7882 C.ar      1 <0>        -0.1150 
     26 C26       -32.6630   71.7356   28.2331 C.ar      1 <0>        -0.1150 
     27 C27       -35.0892   71.9571   28.7691 C.ar      1 <0>        -0.1150 
     28 C28       -37.4294   70.3971   29.0203 C.ar      1 <0>         0.1525 
     29 C29       -38.5985   67.1634   30.9583 C.3       1 <0>         0.1400 
     30 C30       -37.8192   64.9289   31.8753 C.2       1 <0>         0.5000 
     31 C31       -39.0073   70.6419   32.2707 C.2       1 <0>         0.7000 
     32 N1        -37.7019   66.0252   31.1225 N.am      1 <0>        -0.5000 
     33 O1        -39.8124   71.4692   31.7872 O.co2     1 <0>        -0.8000 
     34 O2        -38.8212   64.6533   32.5352 O.2       1 <0>        -0.5000 
     35 O3        -37.8551   70.9210   32.6753 O.co2     1 <0>        -0.8000 
     36 S1        -38.8548   69.3554   29.1111 S.3       1 <0>        -0.3200 
     37 H1        -45.0550   60.9478   35.6492 H         1 <0>         0.1150 
     38 H2        -29.9026   69.1059   27.3889 H         1 <0>         0.1150 
     39 H3        -44.4836   59.8735   33.4797 H         1 <0>         0.1150 
     40 H4        -43.2525   61.5153   37.2651 H         1 <0>         0.1150 
     41 H5        -31.6997   69.6006   25.7435 H         1 <0>         0.1150 
     42 H6        -29.8744   70.2809   29.5855 H         1 <0>         0.1150 
     43 H7        -42.1271   59.3546   32.9276 H         1 <0>         0.1150 
     44 H8        -40.8827   61.0112   36.7197 H         1 <0>         0.1150 
     45 H9        -33.4593   71.2616   26.2743 H         1 <0>         0.1150 
     46 H10       -31.6344   71.9453   30.1304 H         1 <0>         0.1150 
     47 H11       -34.3944   70.8828   30.5173 H         1 <0>         0.1150 
     48 H12       -36.0852   72.8457   27.0655 H         1 <0>         0.1150 
     49 H13       -36.4202   69.5330   30.7383 H         1 <0>         0.1150 
     50 H14       -38.1460   71.4843   27.2937 H         1 <0>         0.1150 
     51 H15       -37.2997   60.1756   33.4029 H         1 <0>         0.0600 
     52 H16       -38.3814   59.7209   32.1088 H         1 <0>         0.0600 
     53 H17       -36.9628   61.2716   31.0507 H         1 <0>         0.0600 
     54 H18       -38.3944   62.1974   31.3998 H         1 <0>         0.0600 
     55 H19       -40.0701   61.3368   32.8728 H         1 <0>         0.0600 
     56 H20       -39.0776   61.8443   34.2047 H         1 <0>         0.0600 
     57 H21       -37.1351   62.8876   33.6176 H         1 <0>         0.0600 
     58 H22       -35.7249   62.2633   32.8002 H         1 <0>         0.0600 
     59 H23       -39.3003   59.7234   35.3293 H         1 <0>         0.0600 
     60 H24       -39.8598   58.9211   33.8829 H         1 <0>         0.0600 
     61 H25       -38.5300   67.4475   33.0771 H         1 <0>         0.0600 
     62 H26       -37.4287   68.4762   32.2749 H         1 <0>         0.0600 
     63 H27       -35.7617   64.6333   32.3497 H         1 <0>         0.0600 
     64 H28       -36.2428   63.8601   30.8632 H         1 <0>         0.0600 
     65 H29       -40.3519   69.0287   31.7257 H         1 <0>         0.0600 
     66 H30       -39.9349   69.1081   33.4076 H         1 <0>         0.0600 
     67 H31       -33.8779   73.4382   27.7762 H         1 <0>         0.0600 
     68 H32       -33.5439   73.2548   29.4836 H         1 <0>         0.0600 
     69 H33       -37.1143   67.7681   29.4887 H         1 <0>         0.0600 
     70 H34       -38.5035   67.0276   28.7972 H         1 <0>         0.0600 
     71 H35       -39.6265   66.8005   30.9106 H         1 <0>         0.0600 
     72 H36       -36.7946   66.1211   30.6735 H         1 <0>         0.3000 
@<TRIPOS>BOND
     1    1    3 ar   
     2    1    4 ar   
     3    1   37 1    
     4    2    5 ar   
     5    2    6 ar   
     6    2   38 1    
     7    3    7 ar   
     8    3   39 1    
     9    4    8 ar   
    10    4   40 1    
    11    5    9 ar   
    12    5   41 1    
    13    6   10 ar   
    14    6   42 1    
    15    7   25 ar   
    16    7   43 1    
    17    8   25 ar   
    18    8   44 1    
    19    9   26 ar   
    20    9   45 1    
    21   10   26 ar   
    22   10   46 1    
    23   11   13 ar   
    24   11   27 ar   
    25   11   47 1    
    26   12   14 ar   
    27   12   27 ar   
    28   12   48 1    
    29   13   28 ar   
    30   13   49 1    
    31   14   28 ar   
    32   14   50 1    
    33   15   16 1    
    34   15   17 1    
    35   15   51 1    
    36   15   52 1    
    37   16   18 1    
    38   16   53 1    
    39   16   54 1    
    40   17   19 1    
    41   17   55 1    
    42   17   56 1    
    43   18   21 1    
    44   18   57 1    
    45   18   58 1    
    46   19   25 1    
    47   19   59 1    
    48   19   60 1    
    49   20   22 1    
    50   20   29 1    
    51   20   61 1    
    52   20   62 1    
    53   21   30 1    
    54   21   63 1    
    55   21   64 1    
    56   22   31 1    
    57   22   65 1    
    58   22   66 1    
    59   23   26 1    
    60   23   27 1    
    61   23   67 1    
    62   23   68 1    
    63   24   29 1    
    64   24   36 1    
    65   24   69 1    
    66   24   70 1    
    67   28   36 1    
    68   29   32 1    
    69   29   71 1    
    70   30   32 am   BACKBONE|DICT|INTERRES
    71   30   34 2    
    72   31   33 1    
    73   31   35 2    
    74   32   72 1    
@<TRIPOS>SUBSTRUCTURE
     1 <0>         1 GROUP             0       ****    0 ROOT    
@<TRIPOS>MOLECULE
pa2ga-ligand
72   74    1
SMALL
USER_CHARGES


@<TRIPOS>ATOM
      1 C1        -44.0075   60.7544   35.3999 C.ar      1 <0>        -0.1150 
      2 C2        -31.2567   72.3222   25.4837 C.ar      1 <0>        -0.1150 
      3 C3        -43.7014   60.1237   34.1787 C.ar      1 <0>        -0.1150 
      4 C4        -42.9728   61.1046   36.2873 C.ar      1 <0>        -0.1150 
      5 C5        -31.4026   73.6313   25.9779 C.ar      1 <0>        -0.1150 
      6 C6        -32.1159   71.3006   25.9318 C.ar      1 <0>        -0.1150 
      7 C7        -42.3646   59.8315   33.8521 C.ar      1 <0>        -0.1150 
      8 C8        -41.6330   60.8224   35.9562 C.ar      1 <0>        -0.1150 
      9 C9        -32.4157   73.9186   26.9123 C.ar      1 <0>        -0.1150 
     10 C10       -33.1232   71.5856   26.8702 C.ar      1 <0>        -0.1150 
     11 C11       -35.4349   71.3323   29.6425 C.ar      1 <0>        -0.1150 
     12 C12       -36.5296   72.1898   27.6401 C.ar      1 <0>        -0.1150 
     13 C13       -36.4842   70.4146   29.8166 C.ar      1 <0>        -0.1150 
     14 C14       -37.5844   71.2762   27.8161 C.ar      1 <0>        -0.1150 
     15 C15       -38.0454   60.5146   32.6996 C.3       1 <0>        -0.1200 
     16 C16       -37.3840   61.5989   31.8388 C.3       1 <0>        -0.1200 
     17 C17       -39.3163   60.9762   33.4337 C.3       1 <0>        -0.1200 
     18 C18       -36.6851   62.6727   32.6746 C.3       1 <0>        -0.1200 
     19 C19       -39.8890   59.8944   34.3604 C.3       1 <0>        -0.0050 
     20 C20       -38.4635   68.0783   32.2648 C.3       1 <0>        -0.1200 
     21 C21       -36.5570   64.0232   31.9491 C.3       1 <0>        -0.1200 
     22 C22       -39.5661   69.1545   32.4525 C.3       1 <0>        -0.2200 
     23 C23       -34.3452   73.2501   28.3947 C.3       1 <0>         0.1100 
     24 C24       -38.1548   67.7056   29.6598 C.3       1 <0>         0.0475 
     25 C25       -41.3267   60.1838   34.7380 C.ar      1 <0>        -0.1150 
     26 C26       -33.2816   72.9004   27.3655 C.ar      1 <0>        -0.1150 
     27 C27       -35.4583   72.2305   28.5571 C.ar      1 <0>        -0.1150 
     28 C28       -37.5618   70.3893   28.9072 C.ar      1 <0>         0.1525 
     29 C29       -38.6009   67.1388   31.0315 C.3       1 <0>         0.1400 
     30 C30       -37.8454   64.8629   31.8885 C.2       1 <0>         0.5000 
     31 C31       -39.0900   70.6054   32.2688 C.2       1 <0>         0.7000 
     32 N1        -37.7000   66.0109   31.2233 N.am      1 <0>        -0.5000 
     33 O1        -39.9065   71.4016   31.7535 O.co2     1 <0>        -0.8000 
     34 O2        -38.8879   64.5158   32.4493 O.2       1 <0>        -0.5000 
     35 O3        -37.9465   70.9144   32.6753 O.co2     1 <0>        -0.8000 
     36 S1        -38.9015   69.2683   29.1295 S.3       1 <0>        -0.3200 
     37 H1        -45.0340   60.9718   35.6513 H         1 <0>         0.1150 
     38 H2        -30.4750   72.0944   24.7749 H         1 <0>         0.1150 
     39 H3        -44.4888   59.8567   33.4904 H         1 <0>         0.1150 
     40 H4        -43.2063   61.5946   37.2227 H         1 <0>         0.1150 
     41 H5        -30.7348   74.4129   25.6465 H         1 <0>         0.1150 
     42 H6        -31.9973   70.2907   25.5676 H         1 <0>         0.1150 
     43 H7        -42.1373   59.3486   32.9127 H         1 <0>         0.1150 
     44 H8        -40.8412   61.1000   36.6364 H         1 <0>         0.1150 
     45 H9        -32.5188   74.9221   27.2969 H         1 <0>         0.1150 
     46 H10       -33.7633   70.7812   27.2016 H         1 <0>         0.1150 
     47 H11       -34.6194   71.3452   30.3516 H         1 <0>         0.1150 
     48 H12       -36.5556   72.8741   26.8050 H         1 <0>         0.1150 
     49 H13       -36.4623   69.7508   30.6680 H         1 <0>         0.1150 
     50 H14       -38.4122   71.2664   27.1207 H         1 <0>         0.1150 
     51 H15       -37.3216   60.1175   33.4116 H         1 <0>         0.0600 
     52 H16       -38.3235   59.6961   32.0433 H         1 <0>         0.0600 
     53 H17       -36.6463   61.1393   31.1805 H         1 <0>         0.0600 
     54 H18       -38.1017   62.0563   31.1654 H         1 <0>         0.0600 
     55 H19       -40.0606   61.2427   32.6846 H         1 <0>         0.0600 
     56 H20       -39.1432   61.8814   34.0153 H         1 <0>         0.0600 
     57 H21       -37.1977   62.8262   33.6231 H         1 <0>         0.0600 
     58 H22       -35.7034   62.2777   32.9294 H         1 <0>         0.0600 
     59 H23       -39.2810   59.8035   35.2612 H         1 <0>         0.0600 
     60 H24       -39.8564   58.9220   33.8748 H         1 <0>         0.0600 
     61 H25       -38.5120   67.4489   33.1511 H         1 <0>         0.0600 
     62 H26       -37.4602   68.5043   32.2862 H         1 <0>         0.0600 
     63 H27       -35.8013   64.6281   32.4510 H         1 <0>         0.0600 
     64 H28       -36.1865   63.8627   30.9354 H         1 <0>         0.0600 
     65 H29       -40.4102   68.9495   31.7969 H         1 <0>         0.0600 
     66 H30       -39.9618   69.0879   33.4658 H         1 <0>         0.0600 
     67 H31       -34.7914   74.2106   28.1332 H         1 <0>         0.0600 
     68 H32       -33.8499   73.3998   29.3538 H         1 <0>         0.0600 
     69 H33       -37.0710   67.8143   29.6286 H         1 <0>         0.0600 
     70 H34       -38.3889   66.9703   28.8882 H         1 <0>         0.0600 
     71 H35       -39.6259   66.7700   30.9624 H         1 <0>         0.0600 
     72 H36       -36.7713   66.1383   30.8285 H         1 <0>         0.3000 
@<TRIPOS>BOND
     1    1    3 ar   
     2    1    4 ar   
     3    1   37 1    
     4    2    5 ar   
     5    2    6 ar   
     6    2   38 1    
     7    3    7 ar   
     8    3   39 1    
     9    4    8 ar   
    10    4   40 1    
    11    5    9 ar   
    12    5   41 1    
    13    6   10 ar   
    14    6   42 1    
    15    7   25 ar   
    16    7   43 1    
    17    8   25 ar   
    18    8   44 1    
    19    9   26 ar   
    20    9   45 1    
    21   10   26 ar   
    22   10   46 1    
    23   11   13 ar   
    24   11   27 ar   
    25   11   47 1    
    26   12   14 ar   
    27   12   27 ar   
    28   12   48 1    
    29   13   28 ar   
    30   13   49 1    
    31   14   28 ar   
    32   14   50 1    
    33   15   16 1    
    34   15   17 1    
    35   15   51 1    
    36   15   52 1    
    37   16   18 1    
    38   16   53 1    
    39   16   54 1    
    40   17   19 1    
    41   17   55 1    
    42   17   56 1    
    43   18   21 1    
    44   18   57 1    
    45   18   58 1    
    46   19   25 1    
    47   19   59 1    
    48   19   60 1    
    49   20   22 1    
    50   20   29 1    
    51   20   61 1    
    52   20   62 1    
    53   21   30 1    
    54   21   63 1    
    55   21   64 1    
    56   22   31 1    
    57   22   65 1    
    58   22   66 1    
    59   23   26 1    
    60   23   27 1    
    61   23   67 1    
    62   23   68 1    
    63   24   29 1    
    64   24   36 1    
    65   24   69 1    
    66   24   70 1    
    67   28   36 1    
    68   29   32 1    
    69   29   71 1    
    70   30   32 am   BACKBONE|DICT|INTERRES
    71   30   34 2    
    72   31   33 1    
    73   31   35 2    
    74   32   72 1    
@<TRIPOS>SUBSTRUCTURE
     1 <0>         1 GROUP             0       ****    0 ROOT    
@<TRIPOS>MOLECULE
pa2ga-ligand
72   74    1
SMALL
USER_CHARGES


@<TRIPOS>ATOM
      1 C1        -43.8235   61.5140   35.9993 C.ar      1 <0>        -0.1150 
      2 C2        -30.1377   69.4481   27.9940 C.ar      1 <0>        -0.1150 
      3 C3        -43.8154   60.8379   34.7640 C.ar      1 <0>        -0.1150 
      4 C4        -42.6213   61.6932   36.7108 C.ar      1 <0>        -0.1150 
      5 C5        -31.2184   69.7104   27.1299 C.ar      1 <0>        -0.1150 
      6 C6        -30.1262   69.9953   29.2913 C.ar      1 <0>        -0.1150 
      7 C7        -42.6061   60.3404   34.2407 C.ar      1 <0>        -0.1150 
      8 C8        -41.4114   61.1965   36.1875 C.ar      1 <0>        -0.1150 
      9 C9        -32.2870   70.5204   27.5618 C.ar      1 <0>        -0.1150 
     10 C10       -31.1944   70.8045   29.7231 C.ar      1 <0>        -0.1150 
     11 C11       -35.1522   70.5325   30.5420 C.ar      1 <0>        -0.1150 
     12 C12       -35.5890   71.1907   28.2341 C.ar      1 <0>        -0.1150 
     13 C13       -36.3968   69.8738   30.5906 C.ar      1 <0>        -0.1150 
     14 C14       -36.8332   70.5349   28.2825 C.ar      1 <0>        -0.1150 
     15 C15       -38.2587   60.4100   32.6686 C.3       1 <0>        -0.1200 
     16 C16       -37.5136   61.4608   31.8335 C.3       1 <0>        -0.1200 
     17 C17       -39.3340   61.0331   33.5726 C.3       1 <0>        -0.1200 
     18 C18       -36.6918   62.4411   32.6973 C.3       1 <0>        -0.1200 
     19 C19       -40.0975   59.9800   34.3885 C.3       1 <0>        -0.0050 
     20 C20       -38.6966   67.9876   32.2434 C.3       1 <0>        -0.1200 
     21 C21       -36.4368   63.8236   32.0548 C.3       1 <0>        -0.1200 
     22 C22       -39.8801   68.9738   32.1057 C.3       1 <0>        -0.2200 
     23 C23       -33.4285   71.9482   29.3286 C.3       1 <0>         0.1100 
     24 C24       -38.4635   67.3613   29.7715 C.3       1 <0>         0.0475 
     25 C25       -41.4000   60.5172   34.9513 C.ar      1 <0>        -0.1150 
     26 C26       -32.2793   71.0718   28.8607 C.ar      1 <0>        -0.1150 
     27 C27       -34.7490   71.2013   29.3669 C.ar      1 <0>        -0.1150 
     28 C28       -37.2443   69.8865   29.4658 C.ar      1 <0>         0.1525 
     29 C29       -38.6567   66.8364   31.2106 C.3       1 <0>         0.1400 
     30 C30       -37.6922   64.6956   32.0311 C.2       1 <0>         0.5000 
     31 C31       -39.6404   70.3147   32.8063 C.2       1 <0>         0.7000 
     32 N1        -37.5536   65.9277   31.5187 N.am      1 <0>        -0.5000 
     33 O1        -40.5388   70.7528   33.5578 O.co2     1 <0>        -0.8000 
     34 O2        -38.7682   64.2287   32.4026 O.2       1 <0>        -0.5000 
     35 O3        -38.5601   70.8908   32.5542 O.co2     1 <0>        -0.8000 
     36 S1        -38.8342   69.1244   29.5635 S.3       1 <0>        -0.3200 
     37 H1        -44.7499   61.8998   36.3985 H         1 <0>         0.1150 
     38 H2        -29.3189   68.8264   27.6630 H         1 <0>         0.1150 
     39 H3        -44.7363   60.7036   34.2160 H         1 <0>         0.1150 
     40 H4        -42.6263   62.2165   37.6555 H         1 <0>         0.1150 
     41 H5        -31.2284   69.2891   26.1355 H         1 <0>         0.1150 
     42 H6        -29.2990   69.7963   29.9567 H         1 <0>         0.1150 
     43 H7        -42.6072   59.8248   33.2915 H         1 <0>         0.1150 
     44 H8        -40.4918   61.3402   36.7359 H         1 <0>         0.1150 
     45 H9        -33.1120   70.7147   26.8922 H         1 <0>         0.1150 
     46 H10       -31.1764   71.2210   30.7199 H         1 <0>         0.1150 
     47 H11       -34.5160   70.5383   31.4149 H         1 <0>         0.1150 
     48 H12       -35.2902   71.7000   27.3301 H         1 <0>         0.1150 
     49 H13       -36.7102   69.3796   31.4986 H         1 <0>         0.1150 
     50 H14       -37.4691   70.5456   27.4105 H         1 <0>         0.1150 
     51 H15       -37.5440   59.8491   33.2720 H         1 <0>         0.0600 
     52 H16       -38.7327   59.6895   32.0007 H         1 <0>         0.0600 
     53 H17       -36.8562   60.9358   31.1406 H         1 <0>         0.0600 
     54 H18       -38.2236   62.0158   31.2192 H         1 <0>         0.0600 
     55 H19       -40.0412   61.5903   32.9560 H         1 <0>         0.0600 
     56 H20       -38.8754   61.7582   34.2463 H         1 <0>         0.0600 
     57 H21       -37.2012   62.5890   33.6499 H         1 <0>         0.0600 
     58 H22       -35.7325   61.9832   32.9422 H         1 <0>         0.0600 
     59 H23       -39.4766   59.6218   35.2106 H         1 <0>         0.0600 
     60 H24       -40.3115   59.1104   33.7658 H         1 <0>         0.0600 
     61 H25       -38.7310   67.5626   33.2467 H         1 <0>         0.0600 
     62 H26       -37.7605   68.5458   32.1990 H         1 <0>         0.0600 
     63 H27       -35.6569   64.3486   32.6080 H         1 <0>         0.0600 
     64 H28       -36.0647   63.7040   31.0366 H         1 <0>         0.0600 
     65 H29       -40.1109   69.1529   31.0553 H         1 <0>         0.0600 
     66 H30       -40.7744   68.5295   32.5423 H         1 <0>         0.0600 
     67 H31       -33.5307   72.8163   28.6762 H         1 <0>         0.0600 
     68 H32       -33.1929   72.3363   30.3201 H         1 <0>         0.0600 
     69 H33       -37.4463   67.1653   29.4322 H         1 <0>         0.0600 
     70 H34       -39.1274   66.8311   29.0885 H         1 <0>         0.0600 
     71 H35       -39.5928   66.2769   31.2617 H         1 <0>         0.0600 
     72 H36       -36.6334   66.2207   31.2279 H         1 <0>         0.3000 
@<TRIPOS>BOND
     1    1    3 ar   
     2    1    4 ar   
     3    1   37 1    
     4    2    5 ar   
     5    2    6 ar   
     6    2   38 1    
     7    3    7 ar   
     8    3   39 1    
     9    4    8 ar   
    10    4   40 1    
    11    5    9 ar   
    12    5   41 1    
    13    6   10 ar   
    14    6   42 1    
    15    7   25 ar   
    16    7   43 1    
    17    8   25 ar   
    18    8   44 1    
    19    9   26 ar   
    20    9   45 1    
    21   10   26 ar   
    22   10   46 1    
    23   11   13 ar   
    24   11   27 ar   
    25   11   47 1    
    26   12   14 ar   
    27   12   27 ar   
    28   12   48 1    
    29   13   28 ar   
    30   13   49 1    
    31   14   28 ar   
    32   14   50 1    
    33   15   16 1    
    34   15   17 1    
    35   15   51 1    
    36   15   52 1    
    37   16   18 1    
    38   16   53 1    
    39   16   54 1    
    40   17   19 1    
    41   17   55 1    
    42   17   56 1    
    43   18   21 1    
    44   18   57 1    
    45   18   58 1    
    46   19   25 1    
    47   19   59 1    
    48   19   60 1    
    49   20   22 1    
    50   20   29 1    
    51   20   61 1    
    52   20   62 1    
    53   21   30 1    
    54   21   63 1    
    55   21   64 1    
    56   22   31 1    
    57   22   65 1    
    58   22   66 1    
    59   23   26 1    
    60   23   27 1    
    61   23   67 1    
    62   23   68 1    
    63   24   29 1    
    64   24   36 1    
    65   24   69 1    
    66   24   70 1    
    67   28   36 1    
    68   29   32 1    
    69   29   71 1    
    70   30   32 am   BACKBONE|DICT|INTERRES
    71   30   34 2    
    72   31   33 1    
    73   31   35 2    
    74   32   72 1    
@<TRIPOS>SUBSTRUCTURE
     1 <0>         1 GROUP             0       ****    0 ROOT    
@<TRIPOS>MOLECULE
pa2ga-ligand
72   74    1
SMALL
USER_CHARGES


@<TRIPOS>ATOM
      1 C1        -43.9996   60.7751   35.4148 C.ar      1 <0>        -0.1150 
      2 C2        -30.6059   69.6146   27.4779 C.ar      1 <0>        -0.1150 
      3 C3        -43.7012   60.1202   34.2056 C.ar      1 <0>        -0.1150 
      4 C4        -42.9585   61.1410   36.2895 C.ar      1 <0>        -0.1150 
      5 C5        -31.6662   70.1199   26.7010 C.ar      1 <0>        -0.1150 
      6 C6        -30.5016   69.9641   28.8387 C.ar      1 <0>        -0.1150 
      7 C7        -42.3676   59.8226   33.8746 C.ar      1 <0>        -0.1150 
      8 C8        -41.6215   60.8488   35.9570 C.ar      1 <0>        -0.1150 
      9 C9        -32.6209   70.9752   27.2814 C.ar      1 <0>        -0.1150 
     10 C10       -31.4609   70.8144   29.4239 C.ar      1 <0>        -0.1150 
     11 C11       -35.1387   70.5209   30.3355 C.ar      1 <0>        -0.1150 
     12 C12       -35.9506   71.8137   28.4342 C.ar      1 <0>        -0.1150 
     13 C13       -36.3557   69.8150   30.3788 C.ar      1 <0>        -0.1150 
     14 C14       -37.1750   71.1188   28.4848 C.ar      1 <0>        -0.1150 
     15 C15       -38.0600   60.4944   32.6763 C.3       1 <0>        -0.1200 
     16 C16       -37.3766   61.5891   31.8467 C.3       1 <0>        -0.1200 
     17 C17       -39.3218   60.9651   33.4212 C.3       1 <0>        -0.1200 
     18 C18       -36.6521   62.6160   32.7269 C.3       1 <0>        -0.1200 
     19 C19       -39.8898   59.8932   34.3602 C.3       1 <0>        -0.0050 
     20 C20       -39.8816   67.1596   31.5521 C.3       1 <0>        -0.1200 
     21 C21       -36.4770   64.0056   32.0708 C.3       1 <0>        -0.1200 
     22 C22       -39.2052   68.0187   32.6400 C.3       1 <0>        -0.2200 
     23 C23       -33.5824   72.2129   29.2727 C.3       1 <0>         0.1100 
     24 C24       -38.4432   67.4564   29.3545 C.3       1 <0>         0.0475 
     25 C25       -41.3228   60.1891   34.7473 C.ar      1 <0>        -0.1150 
     26 C26       -32.5250   71.3219   28.6462 C.ar      1 <0>        -0.1150 
     27 C27       -34.9255   71.5114   29.3566 C.ar      1 <0>        -0.1150 
     28 C28       -37.3708   70.1100   29.4474 C.ar      1 <0>         0.1525 
     29 C29       -38.9116   66.5346   30.5122 C.3       1 <0>         0.1400 
     30 C30       -37.8021   64.7578   31.8743 C.2       1 <0>         0.5000 
     31 C31       -40.1015   69.1776   33.0753 C.2       1 <0>         0.7000 
     32 N1        -37.7526   65.8502   31.0990 N.am      1 <0>        -0.5000 
     33 O1        -41.0251   68.9198   33.8756 O.co2     1 <0>        -0.8000 
     34 O2        -38.8443   64.3381   32.3791 O.2       1 <0>        -0.5000 
     35 O3        -39.8184   70.3156   32.6381 O.co2     1 <0>        -0.8000 
     36 S1        -38.8905   69.2203   29.4737 S.3       1 <0>        -0.3200 
     37 H1        -45.0259   60.9970   35.6691 H         1 <0>         0.1150 
     38 H2        -29.8769   68.9562   27.0271 H         1 <0>         0.1150 
     39 H3        -44.4917   59.8410   33.5273 H         1 <0>         0.1150 
     40 H4        -43.1865   61.6435   37.2185 H         1 <0>         0.1150 
     41 H5        -31.7508   69.8437   25.6612 H         1 <0>         0.1150 
     42 H6        -29.6871   69.5758   29.4322 H         1 <0>         0.1150 
     43 H7        -42.1481   59.3242   32.9407 H         1 <0>         0.1150 
     44 H8        -40.8269   61.1336   36.6311 H         1 <0>         0.1150 
     45 H9        -33.4377   71.3487   26.6805 H         1 <0>         0.1150 
     46 H10       -31.3784   71.0696   30.4713 H         1 <0>         0.1150 
     47 H11       -34.3548   70.2714   31.0358 H         1 <0>         0.1150 
     48 H12       -35.7979   72.5670   27.6765 H         1 <0>         0.1150 
     49 H13       -36.4915   69.0369   31.1142 H         1 <0>         0.1150 
     50 H14       -37.9545   71.3458   27.7717 H         1 <0>         0.1150 
     51 H15       -37.3439   60.0624   33.3765 H         1 <0>         0.0600 
     52 H16       -38.3517   59.7011   31.9936 H         1 <0>         0.0600 
     53 H17       -36.6498   61.1377   31.1707 H         1 <0>         0.0600 
     54 H18       -38.1015   62.0700   31.1952 H         1 <0>         0.0600 
     55 H19       -40.0724   61.2286   32.6759 H         1 <0>         0.0600 
     56 H20       -39.1434   61.8738   33.9960 H         1 <0>         0.0600 
     57 H21       -37.1695   62.7444   33.6759 H         1 <0>         0.0600 
     58 H22       -35.7017   62.1621   32.9918 H         1 <0>         0.0600 
     59 H23       -39.2743   59.8049   35.2546 H         1 <0>         0.0600 
     60 H24       -39.8620   58.9210   33.8758 H         1 <0>         0.0600 
     61 H25       -40.6570   67.7190   31.0269 H         1 <0>         0.0600 
     62 H26       -40.4296   66.3621   32.0552 H         1 <0>         0.0600 
     63 H27       -35.8245   64.6367   32.6753 H         1 <0>         0.0600 
     64 H28       -35.9834   63.8960   31.1046 H         1 <0>         0.0600 
     65 H29       -38.9474   67.3969   33.4975 H         1 <0>         0.0600 
     66 H30       -38.2663   68.4315   32.2739 H         1 <0>         0.0600 
     67 H31       -33.6719   73.1274   28.6841 H         1 <0>         0.0600 
     68 H32       -33.2721   72.5166   30.2742 H         1 <0>         0.0600 
     69 H33       -37.3667   67.3820   29.2061 H         1 <0>         0.0600 
     70 H34       -38.8877   67.0883   28.4319 H         1 <0>         0.0600 
     71 H35       -39.4868   65.7445   30.0242 H         1 <0>         0.0600 
     72 H36       -36.8323   66.1208   30.7631 H         1 <0>         0.3000 
@<TRIPOS>BOND
     1    1    3 ar   
     2    1    4 ar   
     3    1   37 1    
     4    2    5 ar   
     5    2    6 ar   
     6    2   38 1    
     7    3    7 ar   
     8    3   39 1    
     9    4    8 ar   
    10    4   40 1    
    11    5    9 ar   
    12    5   41 1    
    13    6   10 ar   
    14    6   42 1    
    15    7   25 ar   
    16    7   43 1    
    17    8   25 ar   
    18    8   44 1    
    19    9   26 ar   
    20    9   45 1    
    21   10   26 ar   
    22   10   46 1    
    23   11   13 ar   
    24   11   27 ar   
    25   11   47 1    
    26   12   14 ar   
    27   12   27 ar   
    28   12   48 1    
    29   13   28 ar   
    30   13   49 1    
    31   14   28 ar   
    32   14   50 1    
    33   15   16 1    
    34   15   17 1    
    35   15   51 1    
    36   15   52 1    
    37   16   18 1    
    38   16   53 1    
    39   16   54 1    
    40   17   19 1    
    41   17   55 1    
    42   17   56 1    
    43   18   21 1    
    44   18   57 1    
    45   18   58 1    
    46   19   25 1    
    47   19   59 1    
    48   19   60 1    
    49   20   22 1    
    50   20   29 1    
    51   20   61 1    
    52   20   62 1    
    53   21   30 1    
    54   21   63 1    
    55   21   64 1    
    56   22   31 1    
    57   22   65 1    
    58   22   66 1    
    59   23   26 1    
    60   23   27 1    
    61   23   67 1    
    62   23   68 1    
    63   24   29 1    
    64   24   36 1    
    65   24   69 1    
    66   24   70 1    
    67   28   36 1    
    68   29   32 1    
    69   29   71 1    
    70   30   32 am   BACKBONE|DICT|INTERRES
    71   30   34 2    
    72   31   33 1    
    73   31   35 2    
    74   32   72 1    
@<TRIPOS>SUBSTRUCTURE
     1 <0>         1 GROUP             0       ****    0 ROOT    
@<TRIPOS>MOLECULE
pa2ga-ligand
72   74    1
SMALL
USER_CHARGES


@<TRIPOS>ATOM
      1 C1        -43.9998   60.7708   35.4003 C.ar      1 <0>        -0.1150 
      2 C2        -30.4984   69.6159   27.7362 C.ar      1 <0>        -0.1150 
      3 C3        -43.7016   60.1225   34.1874 C.ar      1 <0>        -0.1150 
      4 C4        -42.9607   61.1291   36.2795 C.ar      1 <0>        -0.1150 
      5 C5        -31.5435   70.0532   26.9006 C.ar      1 <0>        -0.1150 
      6 C6        -30.4392   70.0533   29.0736 C.ar      1 <0>        -0.1150 
      7 C7        -42.3652   59.8254   33.8582 C.ar      1 <0>        -0.1150 
      8 C8        -41.6211   60.8432   35.9463 C.ar      1 <0>        -0.1150 
      9 C9        -32.5306   70.9235   27.4017 C.ar      1 <0>        -0.1150 
     10 C10       -31.4267   70.9226   29.5782 C.ar      1 <0>        -0.1150 
     11 C11       -35.1541   70.5267   30.1966 C.ar      1 <0>        -0.1150 
     12 C12       -35.9204   71.9820   28.3905 C.ar      1 <0>        -0.1150 
     13 C13       -36.3776   69.8405   30.1562 C.ar      1 <0>        -0.1150 
     14 C14       -37.1485   71.2940   28.3539 C.ar      1 <0>        -0.1150 
     15 C15       -38.0421   60.5290   32.6772 C.3       1 <0>        -0.1200 
     16 C16       -37.3804   61.6321   31.8336 C.3       1 <0>        -0.1200 
     17 C17       -39.3148   60.9798   33.4185 C.3       1 <0>        -0.1200 
     18 C18       -36.6696   62.6845   32.6925 C.3       1 <0>        -0.1200 
     19 C19       -39.8827   59.8985   34.3519 C.3       1 <0>        -0.0050 
     20 C20       -38.7217   68.0023   32.0160 C.3       1 <0>        -0.1200 
     21 C21       -36.5016   64.0505   31.9984 C.3       1 <0>        -0.1200 
     22 C22       -39.9609   67.8699   32.9359 C.3       1 <0>        -0.2200 
     23 C23       -33.5608   72.2739   29.2903 C.3       1 <0>         0.1100 
     24 C24       -38.3716   67.5549   29.4281 C.3       1 <0>         0.0475 
     25 C25       -41.3212   60.1893   34.7333 C.ar      1 <0>        -0.1150 
     26 C26       -32.4782   71.3591   28.7432 C.ar      1 <0>        -0.1150 
     27 C27       -34.9145   71.5916   29.3014 C.ar      1 <0>        -0.1150 
     28 C28       -37.3703   70.2073   29.2213 C.ar      1 <0>         0.1525 
     29 C29       -38.7017   66.9855   30.8367 C.3       1 <0>         0.1400 
     30 C30       -37.7980   64.8698   31.8750 C.2       1 <0>         0.5000 
     31 C31       -40.5016   69.2034   33.4754 C.2       1 <0>         0.7000 
     32 N1        -37.7017   65.9542   31.0993 N.am      1 <0>        -0.5000 
     33 O1        -41.4505   69.1218   34.2820 O.co2     1 <0>        -0.8000 
     34 O2        -38.8254   64.5460   32.4719 O.2       1 <0>        -0.5000 
     35 O3        -40.0106   70.2807   33.0723 O.co2     1 <0>        -0.8000 
     36 S1        -38.8669   69.2808   29.0887 S.3       1 <0>        -0.3200 
     37 H1        -45.0264   60.9893   35.6557 H         1 <0>         0.1150 
     38 H2        -29.7419   68.9472   27.3501 H         1 <0>         0.1150 
     39 H3        -44.4970   59.8430   33.5118 H         1 <0>         0.1150 
     40 H4        -43.1888   61.6279   37.2099 H         1 <0>         0.1150 
     41 H5        -31.5902   69.7156   25.8759 H         1 <0>         0.1150 
     42 H6        -29.6315   69.7258   29.7099 H         1 <0>         0.1150 
     43 H7        -42.1429   59.3261   32.9250 H         1 <0>         0.1150 
     44 H8        -40.8280   61.1269   36.6238 H         1 <0>         0.1150 
     45 H9        -33.3344   71.2456   26.7561 H         1 <0>         0.1150 
     46 H10       -31.3721   71.2471   30.6069 H         1 <0>         0.1150 
     47 H11       -34.3908   70.2147   30.8947 H         1 <0>         0.1150 
     48 H12       -35.7457   72.7938   27.6997 H         1 <0>         0.1150 
     49 H13       -36.5200   69.0094   30.8286 H         1 <0>         0.1150 
     50 H14       -37.9079   71.5806   27.6397 H         1 <0>         0.1150 
     51 H15       -37.3179   60.1190   33.3834 H         1 <0>         0.0600 
     52 H16       -38.3153   59.7198   32.0036 H         1 <0>         0.0600 
     53 H17       -36.6469   61.1817   31.1617 H         1 <0>         0.0600 
     54 H18       -38.1035   62.1032   31.1765 H         1 <0>         0.0600 
     55 H19       -40.0668   61.2423   32.6755 H         1 <0>         0.0600 
     56 H20       -39.1449   61.8883   33.9963 H         1 <0>         0.0600 
     57 H21       -37.1909   62.8307   33.6375 H         1 <0>         0.0600 
     58 H22       -35.7022   62.2616   32.9537 H         1 <0>         0.0600 
     59 H23       -39.2698   59.8201   35.2502 H         1 <0>         0.0600 
     60 H24       -39.8467   58.9212   33.8752 H         1 <0>         0.0600 
     61 H25       -37.8240   67.8998   32.6253 H         1 <0>         0.0600 
     62 H26       -38.6420   69.0144   31.6432 H         1 <0>         0.0600 
     63 H27       -35.7876   64.6593   32.5545 H         1 <0>         0.0600 
     64 H28       -36.0710   63.9106   31.0059 H         1 <0>         0.0600 
     65 H29       -40.7910   67.4058   32.4029 H         1 <0>         0.0600 
     66 H30       -39.7310   67.2091   33.7718 H         1 <0>         0.0600 
     67 H31       -33.5960   73.1810   28.6848 H         1 <0>         0.0600 
     68 H32       -33.3120   72.5866   30.3052 H         1 <0>         0.0600 
     69 H33       -37.3039   67.4830   29.2274 H         1 <0>         0.0600 
     70 H34       -38.8333   66.9132   28.6767 H         1 <0>         0.0600 
     71 H35       -39.6786   66.5075   30.7543 H         1 <0>         0.0600 
     72 H36       -36.7828   66.1179   30.6945 H         1 <0>         0.3000 
@<TRIPOS>BOND
     1    1    3 ar   
     2    1    4 ar   
     3    1   37 1    
     4    2    5 ar   
     5    2    6 ar   
     6    2   38 1    
     7    3    7 ar   
     8    3   39 1    
     9    4    8 ar   
    10    4   40 1    
    11    5    9 ar   
    12    5   41 1    
    13    6   10 ar   
    14    6   42 1    
    15    7   25 ar   
    16    7   43 1    
    17    8   25 ar   
    18    8   44 1    
    19    9   26 ar   
    20    9   45 1    
    21   10   26 ar   
    22   10   46 1    
    23   11   13 ar   
    24   11   27 ar   
    25   11   47 1    
    26   12   14 ar   
    27   12   27 ar   
    28   12   48 1    
    29   13   28 ar   
    30   13   49 1    
    31   14   28 ar   
    32   14   50 1    
    33   15   16 1    
    34   15   17 1    
    35   15   51 1    
    36   15   52 1    
    37   16   18 1    
    38   16   53 1    
    39   16   54 1    
    40   17   19 1    
    41   17   55 1    
    42   17   56 1    
    43   18   21 1    
    44   18   57 1    
    45   18   58 1    
    46   19   25 1    
    47   19   59 1    
    48   19   60 1    
    49   20   22 1    
    50   20   29 1    
    51   20   61 1    
    52   20   62 1    
    53   21   30 1    
    54   21   63 1    
    55   21   64 1    
    56   22   31 1    
    57   22   65 1    
    58   22   66 1    
    59   23   26 1    
    60   23   27 1    
    61   23   67 1    
    62   23   68 1    
    63   24   29 1    
    64   24   36 1    
    65   24   69 1    
    66   24   70 1    
    67   28   36 1    
    68   29   32 1    
    69   29   71 1    
    70   30   32 am   BACKBONE|DICT|INTERRES
    71   30   34 2    
    72   31   33 1    
    73   31   35 2    
    74   32   72 1    
@<TRIPOS>SUBSTRUCTURE
     1 <0>         1 GROUP             0       ****    0 ROOT    
@<TRIPOS>MOLECULE
pa2ga-ligand
72   74    1
SMALL
USER_CHARGES


@<TRIPOS>ATOM
      1 C1        -44.1390   61.3863   35.9322 C.ar      1 <0>        -0.1150 
      2 C2        -30.7053   70.7580   26.7965 C.ar      1 <0>        -0.1150 
      3 C3        -44.0193   60.5207   34.8281 C.ar      1 <0>        -0.1150 
      4 C4        -42.9910   61.7616   36.6562 C.ar      1 <0>        -0.1150 
      5 C5        -30.5163   71.9255   27.5610 C.ar      1 <0>        -0.1150 
      6 C6        -32.0077   70.3016   26.5211 C.ar      1 <0>        -0.1150 
      7 C7        -42.7568   60.0227   34.4498 C.ar      1 <0>        -0.1150 
      8 C8        -41.7270   61.2721   36.2748 C.ar      1 <0>        -0.1150 
      9 C9        -31.6317   72.6304   28.0583 C.ar      1 <0>        -0.1150 
     10 C10       -33.1220   71.0114   27.0070 C.ar      1 <0>        -0.1150 
     11 C11       -35.3787   71.3026   29.7861 C.ar      1 <0>        -0.1150 
     12 C12       -36.4602   72.1213   27.7627 C.ar      1 <0>        -0.1150 
     13 C13       -36.4875   70.4709   30.0333 C.ar      1 <0>        -0.1150 
     14 C14       -37.5612   71.2766   27.9958 C.ar      1 <0>        -0.1150 
     15 C15       -38.1326   60.4270   33.4080 C.3       1 <0>        -0.1200 
     16 C16       -37.4537   61.3882   32.4191 C.3       1 <0>        -0.1200 
     17 C17       -39.5414   60.8796   33.8243 C.3       1 <0>        -0.1200 
     18 C18       -37.0203   62.7146   33.0626 C.3       1 <0>        -0.1200 
     19 C19       -40.2402   59.8903   34.7633 C.3       1 <0>        -0.0050 
     20 C20       -39.8620   67.2228   31.5152 C.3       1 <0>        -0.1200 
     21 C21       -36.7890   63.8417   32.0381 C.3       1 <0>        -0.1200 
     22 C22       -39.1946   68.0499   32.6329 C.3       1 <0>        -0.2200 
     23 C23       -34.1330   72.9692   28.3230 C.3       1 <0>         0.1100 
     24 C24       -38.0790   67.7061   29.6674 C.3       1 <0>         0.0475 
     25 C25       -41.6073   60.3975   35.1756 C.ar      1 <0>        -0.1150 
     26 C26       -32.9420   72.1787   27.7877 C.ar      1 <0>        -0.1150 
     27 C27       -35.3527   72.1182   28.6360 C.ar      1 <0>        -0.1150 
     28 C28       -37.5623   70.4300   29.1188 C.ar      1 <0>         0.1525 
     29 C29       -38.8852   66.6518   30.4595 C.3       1 <0>         0.1400 
     30 C30       -38.0741   64.5403   31.5667 C.2       1 <0>         0.5000 
     31 C31       -40.1010   69.1972   33.0768 C.2       1 <0>         0.7000 
     32 N1        -37.8943   65.7665   31.0653 N.am      1 <0>        -0.5000 
     33 O1        -41.0168   68.9234   33.8766 O.co2     1 <0>        -0.8000 
     34 O2        -39.1752   63.9959   31.6498 O.2       1 <0>        -0.5000 
     35 O3        -39.8510   70.3337   32.6186 O.co2     1 <0>        -0.8000 
     36 S1        -38.8985   69.3021   29.3548 S.3       1 <0>        -0.3200 
     37 H1        -45.1088   61.7638   36.2215 H         1 <0>         0.1150 
     38 H2        -29.8529   70.2154   26.4127 H         1 <0>         0.1150 
     39 H3        -44.9006   60.2344   34.2750 H         1 <0>         0.1150 
     40 H4        -43.0794   62.4286   37.5011 H         1 <0>         0.1150 
     41 H5        -29.5160   72.2805   27.7603 H         1 <0>         0.1150 
     42 H6        -32.1468   69.4100   25.9252 H         1 <0>         0.1150 
     43 H7        -42.6751   59.3594   33.6007 H         1 <0>         0.1150 
     44 H8        -40.8484   61.5667   36.8304 H         1 <0>         0.1150 
     45 H9        -31.4766   73.5231   28.6488 H         1 <0>         0.1150 
     46 H10       -34.1134   70.6457   26.7804 H         1 <0>         0.1150 
     47 H11       -34.5425   71.2957   30.4703 H         1 <0>         0.1150 
     48 H12       -36.4584   72.7528   26.8868 H         1 <0>         0.1150 
     49 H13       -36.4943   69.8521   30.9189 H         1 <0>         0.1150 
     50 H14       -38.3908   71.2653   27.3023 H         1 <0>         0.1150 
     51 H15       -37.5021   60.3126   34.2875 H         1 <0>         0.0600 
     52 H16       -38.2080   59.4408   32.9538 H         1 <0>         0.0600 
     53 H17       -36.5658   60.9215   31.9965 H         1 <0>         0.0600 
     54 H18       -38.1023   61.5661   31.5662 H         1 <0>         0.0600 
     55 H19       -40.1569   61.0259   32.9362 H         1 <0>         0.0600 
     56 H20       -39.4912   61.8482   34.3198 H         1 <0>         0.0600 
     57 H21       -37.7459   63.0525   33.8011 H         1 <0>         0.0600 
     58 H22       -36.1036   62.5199   33.6140 H         1 <0>         0.0600 
     59 H23       -39.6391   59.7250   35.6587 H         1 <0>         0.0600 
     60 H24       -40.3464   58.9227   34.2762 H         1 <0>         0.0600 
     61 H25       -40.6227   67.8088   30.9990 H         1 <0>         0.0600 
     62 H26       -40.4177   66.4061   31.9768 H         1 <0>         0.0600 
     63 H27       -36.1406   64.6002   32.4767 H         1 <0>         0.0600 
     64 H28       -36.2546   63.4598   31.1666 H         1 <0>         0.0600 
     65 H29       -38.9479   67.4122   33.4803 H         1 <0>         0.0600 
     66 H30       -38.2536   68.4791   32.2942 H         1 <0>         0.0600 
     67 H31       -34.3947   73.7339   27.5912 H         1 <0>         0.0600 
     68 H32       -33.8384   73.5003   29.2292 H         1 <0>         0.0600 
     69 H33       -37.1528   67.9134   30.2012 H         1 <0>         0.0600 
     70 H34       -37.7776   67.2805   28.7097 H         1 <0>         0.0600 
     71 H35       -39.4746   66.0725   29.7453 H         1 <0>         0.0600 
     72 H36       -36.9386   66.1022   31.0467 H         1 <0>         0.3000 
@<TRIPOS>BOND
     1    1    3 ar   
     2    1    4 ar   
     3    1   37 1    
     4    2    5 ar   
     5    2    6 ar   
     6    2   38 1    
     7    3    7 ar   
     8    3   39 1    
     9    4    8 ar   
    10    4   40 1    
    11    5    9 ar   
    12    5   41 1    
    13    6   10 ar   
    14    6   42 1    
    15    7   25 ar   
    16    7   43 1    
    17    8   25 ar   
    18    8   44 1    
    19    9   26 ar   
    20    9   45 1    
    21   10   26 ar   
    22   10   46 1    
    23   11   13 ar   
    24   11   27 ar   
    25   11   47 1    
    26   12   14 ar   
    27   12   27 ar   
    28   12   48 1    
    29   13   28 ar   
    30   13   49 1    
    31   14   28 ar   
    32   14   50 1    
    33   15   16 1    
    34   15   17 1    
    35   15   51 1    
    36   15   52 1    
    37   16   18 1    
    38   16   53 1    
    39   16   54 1    
    40   17   19 1    
    41   17   55 1    
    42   17   56 1    
    43   18   21 1    
    44   18   57 1    
    45   18   58 1    
    46   19   25 1    
    47   19   59 1    
    48   19   60 1    
    49   20   22 1    
    50   20   29 1    
    51   20   61 1    
    52   20   62 1    
    53   21   30 1    
    54   21   63 1    
    55   21   64 1    
    56   22   31 1    
    57   22   65 1    
    58   22   66 1    
    59   23   26 1    
    60   23   27 1    
    61   23   67 1    
    62   23   68 1    
    63   24   29 1    
    64   24   36 1    
    65   24   69 1    
    66   24   70 1    
    67   28   36 1    
    68   29   32 1    
    69   29   71 1    
    70   30   32 am   BACKBONE|DICT|INTERRES
    71   30   34 2    
    72   31   33 1    
    73   31   35 2    
    74   32   72 1    
@<TRIPOS>SUBSTRUCTURE
     1 <0>         1 GROUP             0       ****    0 ROOT    
@<TRIPOS>MOLECULE
pa2ga-ligand
72   74    1
SMALL
USER_CHARGES


@<TRIPOS>ATOM
      1 C1        -43.9230   61.0348   35.7247 C.ar      1 <0>        -0.1150 
      2 C2        -30.1834   69.7441   27.2797 C.ar      1 <0>        -0.1150 
      3 C3        -43.7262   60.3556   34.5074 C.ar      1 <0>        -0.1150 
      4 C4        -42.8189   61.3416   36.5435 C.ar      1 <0>        -0.1150 
      5 C5        -30.4954   69.3830   28.6045 C.ar      1 <0>        -0.1150 
      6 C6        -30.8312   70.8423   26.6814 C.ar      1 <0>        -0.1150 
      7 C7        -42.4344   59.9743   34.1092 C.ar      1 <0>        -0.1150 
      8 C8        -41.5221   60.9622   36.1472 C.ar      1 <0>        -0.1150 
      9 C9        -31.4521   70.1210   29.3286 C.ar      1 <0>        -0.1150 
     10 C10       -31.7879   71.5801   27.4056 C.ar      1 <0>        -0.1150 
     11 C11       -34.9562   70.5211   30.5044 C.ar      1 <0>        -0.1150 
     12 C12       -35.3359   71.5462   28.3219 C.ar      1 <0>        -0.1150 
     13 C13       -36.1925   69.8535   30.4062 C.ar      1 <0>        -0.1150 
     14 C14       -36.5751   70.8834   28.2272 C.ar      1 <0>        -0.1150 
     15 C15       -38.1008   60.3870   32.7961 C.3       1 <0>        -0.1200 
     16 C16       -37.3876   61.4358   31.9327 C.3       1 <0>        -0.1200 
     17 C17       -39.3384   60.9210   33.5327 C.3       1 <0>        -0.1200 
     18 C18       -36.6836   62.5204   32.7688 C.3       1 <0>        -0.1200 
     19 C19       -39.9428   59.8799   34.4792 C.3       1 <0>        -0.0050 
     20 C20       -39.2164   67.7241   31.7171 C.3       1 <0>        -0.1200 
     21 C21       -36.5338   63.8788   32.0514 C.3       1 <0>        -0.1200 
     22 C22       -39.8710   67.0910   32.9572 C.3       1 <0>        -0.2200 
     23 C23       -33.1438   72.0041   29.5182 C.3       1 <0>         0.1100 
     24 C24       -38.0777   67.3762   29.4013 C.3       1 <0>         0.0475 
     25 C25       -41.3303   60.2757   34.9288 C.ar      1 <0>        -0.1150 
     26 C26       -32.1026   71.2231   28.7349 C.ar      1 <0>        -0.1150 
     27 C27       -34.5131   71.3522   29.4527 C.ar      1 <0>        -0.1150 
     28 C28       -36.9929   70.0179   29.2560 C.ar      1 <0>         0.1525 
     29 C29       -38.7150   66.7230   30.6569 C.3       1 <0>         0.1400 
     30 C30       -37.8502   64.6214   31.7630 C.2       1 <0>         0.5000 
     31 C31       -40.5017   68.1408   33.8753 C.2       1 <0>         0.7000 
     32 N1        -37.7016   65.8304   31.2085 N.am      1 <0>        -0.5000 
     33 O1        -40.9877   67.7203   34.9457 O.co2     1 <0>        -0.8000 
     34 O2        -38.9476   64.1268   32.0197 O.2       1 <0>        -0.5000 
     35 O3        -40.5020   69.3375   33.5035 O.co2     1 <0>        -0.8000 
     36 S1        -38.5026   69.1199   29.0751 S.3       1 <0>        -0.3200 
     37 H1        -44.9189   61.3238   36.0271 H         1 <0>         0.1150 
     38 H2        -29.4512   69.1796   26.7216 H         1 <0>         0.1150 
     39 H3        -44.5648   60.1221   33.8750 H         1 <0>         0.1150 
     40 H4        -42.9677   61.8641   37.4772 H         1 <0>         0.1150 
     41 H5        -30.0056   68.5341   29.0604 H         1 <0>         0.1150 
     42 H6        -30.5937   71.1142   25.6635 H         1 <0>         0.1150 
     43 H7        -42.2930   59.4552   33.1714 H         1 <0>         0.1150 
     44 H8        -40.6767   61.2015   36.7759 H         1 <0>         0.1150 
     45 H9        -31.6993   69.8270   30.3376 H         1 <0>         0.1150 
     46 H10       -32.2865   72.4161   26.9363 H         1 <0>         0.1150 
     47 H11       -34.3332   70.3554   31.3727 H         1 <0>         0.1150 
     48 H12       -35.0071   72.1816   27.5122 H         1 <0>         0.1150 
     49 H13       -36.4997   69.1907   31.1991 H         1 <0>         0.1150 
     50 H14       -37.1895   71.0139   27.3481 H         1 <0>         0.1150 
     51 H15       -37.3918   59.9505   33.5024 H         1 <0>         0.0600 
     52 H16       -38.4379   59.5838   32.1444 H         1 <0>         0.0600 
     53 H17       -36.6485   60.9485   31.2971 H         1 <0>         0.0600 
     54 H18       -38.1016   61.8711   31.2367 H         1 <0>         0.0600 
     55 H19       -40.0776   61.2132   32.7863 H         1 <0>         0.0600 
     56 H20       -39.1253   61.8226   34.1045 H         1 <0>         0.0600 
     57 H21       -37.2096   62.6933   33.7049 H         1 <0>         0.0600 
     58 H22       -35.7079   62.1227   33.0614 H         1 <0>         0.0600 
     59 H23       -39.3003   59.7261   35.3463 H         1 <0>         0.0600 
     60 H24       -40.0141   58.9209   33.9711 H         1 <0>         0.0600 
     61 H25       -38.3999   68.3700   32.0392 H         1 <0>         0.0600 
     62 H26       -39.9638   68.3670   31.2504 H         1 <0>         0.0600 
     63 H27       -35.9125   64.5390   32.6580 H         1 <0>         0.0600 
     64 H28       -36.0016   63.7376   31.1096 H         1 <0>         0.0600 
     65 H29       -40.6476   66.3871   32.6565 H         1 <0>         0.0600 
     66 H30       -39.1365   66.5293   33.5316 H         1 <0>         0.0600 
     67 H31       -33.2073   73.0230   29.1338 H         1 <0>         0.0600 
     68 H32       -32.8219   72.0862   30.5585 H         1 <0>         0.0600 
     69 H33       -36.9928   67.3450   29.4750 H         1 <0>         0.0600 
     70 H34       -38.3254   66.7831   28.5204 H         1 <0>         0.0600 
     71 H35       -39.5694   66.1296   30.3254 H         1 <0>         0.0600 
     72 H36       -36.7407   66.1179   31.0535 H         1 <0>         0.3000 
@<TRIPOS>BOND
     1    1    3 ar   
     2    1    4 ar   
     3    1   37 1    
     4    2    5 ar   
     5    2    6 ar   
     6    2   38 1    
     7    3    7 ar   
     8    3   39 1    
     9    4    8 ar   
    10    4   40 1    
    11    5    9 ar   
    12    5   41 1    
    13    6   10 ar   
    14    6   42 1    
    15    7   25 ar   
    16    7   43 1    
    17    8   25 ar   
    18    8   44 1    
    19    9   26 ar   
    20    9   45 1    
    21   10   26 ar   
    22   10   46 1    
    23   11   13 ar   
    24   11   27 ar   
    25   11   47 1    
    26   12   14 ar   
    27   12   27 ar   
    28   12   48 1    
    29   13   28 ar   
    30   13   49 1    
    31   14   28 ar   
    32   14   50 1    
    33   15   16 1    
    34   15   17 1    
    35   15   51 1    
    36   15   52 1    
    37   16   18 1    
    38   16   53 1    
    39   16   54 1    
    40   17   19 1    
    41   17   55 1    
    42   17   56 1    
    43   18   21 1    
    44   18   57 1    
    45   18   58 1    
    46   19   25 1    
    47   19   59 1    
    48   19   60 1    
    49   20   22 1    
    50   20   29 1    
    51   20   61 1    
    52   20   62 1    
    53   21   30 1    
    54   21   63 1    
    55   21   64 1    
    56   22   31 1    
    57   22   65 1    
    58   22   66 1    
    59   23   26 1    
    60   23   27 1    
    61   23   67 1    
    62   23   68 1    
    63   24   29 1    
    64   24   36 1    
    65   24   69 1    
    66   24   70 1    
    67   28   36 1    
    68   29   32 1    
    69   29   71 1    
    70   30   32 am   BACKBONE|DICT|INTERRES
    71   30   34 2    
    72   31   33 1    
    73   31   35 2    
    74   32   72 1    
@<TRIPOS>SUBSTRUCTURE
     1 <0>         1 GROUP             0       ****    0 ROOT    
@<TRIPOS>MOLECULE
pa2ga-ligand
72   74    1
SMALL
USER_CHARGES


@<TRIPOS>ATOM
      1 C1        -44.0045   60.7546   35.3984 C.ar      1 <0>        -0.1150 
      2 C2        -31.3559   72.3708   25.4751 C.ar      1 <0>        -0.1150 
      3 C3        -43.7017   60.1181   34.1798 C.ar      1 <0>        -0.1150 
      4 C4        -42.9673   61.1067   36.2827 C.ar      1 <0>        -0.1150 
      5 C5        -31.4573   73.6501   26.0528 C.ar      1 <0>        -0.1150 
      6 C6        -32.1724   71.3204   25.9371 C.ar      1 <0>        -0.1150 
      7 C7        -42.3665   59.8256   33.8512 C.ar      1 <0>        -0.1150 
      8 C8        -41.6280   60.8223   35.9505 C.ar      1 <0>        -0.1150 
      9 C9        -32.3728   73.8778   27.0980 C.ar      1 <0>        -0.1150 
     10 C10       -33.0810   71.5451   26.9880 C.ar      1 <0>        -0.1150 
     11 C11       -35.4002   71.2293   29.8908 C.ar      1 <0>        -0.1150 
     12 C12       -36.3462   72.2167   27.8721 C.ar      1 <0>        -0.1150 
     13 C13       -36.5041   70.3606   29.9757 C.ar      1 <0>        -0.1150 
     14 C14       -37.4529   71.3523   27.9570 C.ar      1 <0>        -0.1150 
     15 C15       -38.0321   60.5462   32.7053 C.3       1 <0>        -0.1200 
     16 C16       -37.3946   61.6582   31.8575 C.3       1 <0>        -0.1200 
     17 C17       -39.3168   60.9817   33.4311 C.3       1 <0>        -0.1200 
     18 C18       -36.6894   62.7171   32.7111 C.3       1 <0>        -0.1200 
     19 C19       -39.8858   59.8954   34.3553 C.3       1 <0>        -0.0050 
     20 C20       -38.6418   68.0422   32.0122 C.3       1 <0>        -0.1200 
     21 C21       -36.5270   64.0794   32.0095 C.3       1 <0>        -0.1200 
     22 C22       -39.8075   67.8170   33.0058 C.3       1 <0>        -0.2200 
     23 C23       -34.1304   73.1030   28.7374 C.3       1 <0>         0.1100 
     24 C24       -38.1690   67.6906   29.4776 C.3       1 <0>         0.0475 
     25 C25       -41.3246   60.1800   34.7330 C.ar      1 <0>        -0.1150 
     26 C26       -33.1865   72.8274   27.5760 C.ar      1 <0>        -0.1150 
     27 C27       -35.3182   72.1613   28.8365 C.ar      1 <0>        -0.1150 
     28 C28       -37.5283   70.4172   29.0050 C.ar      1 <0>         0.1525 
     29 C29       -38.6355   67.0591   30.8102 C.3       1 <0>         0.1400 
     30 C30       -37.8176   64.9067   31.8746 C.2       1 <0>         0.5000 
     31 C31       -40.5016   69.1025   33.4779 C.2       1 <0>         0.7000 
     32 N1        -37.7017   65.9717   31.0745 N.am      1 <0>        -0.5000 
     33 O1        -41.4495   68.9513   34.2757 O.co2     1 <0>        -0.8000 
     34 O2        -38.8459   64.6126   32.4824 O.2       1 <0>        -0.5000 
     35 O3        -40.0990   70.2170   33.0754 O.co2     1 <0>        -0.8000 
     36 S1        -38.9009   69.3127   29.0752 S.3       1 <0>        -0.3200 
     37 H1        -45.0315   60.9740   35.6523 H         1 <0>         0.1150 
     38 H2        -30.6473   72.1858   24.6819 H         1 <0>         0.1150 
     39 H3        -44.4961   59.8503   33.4984 H         1 <0>         0.1150 
     40 H4        -43.1989   61.5977   37.2161 H         1 <0>         0.1150 
     41 H5        -30.8252   74.4548   25.7048 H         1 <0>         0.1150 
     42 H6        -32.0916   70.3380   25.4936 H         1 <0>         0.1150 
     43 H7        -42.1432   59.3404   32.9114 H         1 <0>         0.1150 
     44 H8        -40.8367   61.1010   36.6308 H         1 <0>         0.1150 
     45 H9        -32.4398   74.8592   27.5465 H         1 <0>         0.1150 
     46 H10       -33.6876   70.7223   27.3375 H         1 <0>         0.1150 
     47 H11       -34.6179   71.1698   30.6334 H         1 <0>         0.1150 
     48 H12       -36.2883   72.9272   27.0606 H         1 <0>         0.1150 
     49 H13       -36.5525   69.6492   30.7867 H         1 <0>         0.1150 
     50 H14       -38.2361   71.4038   27.2135 H         1 <0>         0.1150 
     51 H15       -37.3034   60.1642   33.4215 H         1 <0>         0.0600 
     52 H16       -38.2798   59.7207   32.0417 H         1 <0>         0.0600 
     53 H17       -36.6654   61.2237   31.1725 H         1 <0>         0.0600 
     54 H18       -38.1355   62.1261   31.2162 H         1 <0>         0.0600 
     55 H19       -40.0600   61.2375   32.6769 H         1 <0>         0.0600 
     56 H20       -39.1638   61.8895   34.0131 H         1 <0>         0.0600 
     57 H21       -37.2135   62.8655   33.6531 H         1 <0>         0.0600 
     58 H22       -35.7148   62.3062   32.9725 H         1 <0>         0.0600 
     59 H23       -39.2778   59.8126   35.2569 H         1 <0>         0.0600 
     60 H24       -39.8435   58.9212   33.8741 H         1 <0>         0.0600 
     61 H25       -37.7017   67.9859   32.5568 H         1 <0>         0.0600 
     62 H26       -38.6447   69.0631   31.6501 H         1 <0>         0.0600 
     63 H27       -35.8125   64.6902   32.5645 H         1 <0>         0.0600 
     64 H28       -36.0930   63.9291   31.0195 H         1 <0>         0.0600 
     65 H29       -40.5822   67.1941   32.5587 H         1 <0>         0.0600 
     66 H30       -39.4482   67.2679   33.8757 H         1 <0>         0.0600 
     67 H31       -34.5127   74.1204   28.6515 H         1 <0>         0.0600 
     68 H32       -33.5546   73.0705   29.6624 H         1 <0>         0.0600 
     69 H33       -37.0847   67.7962   29.4759 H         1 <0>         0.0600 
     70 H34       -38.3965   67.0074   28.6590 H         1 <0>         0.0600 
     71 H35       -39.6337   66.6511   30.6463 H         1 <0>         0.0600 
     72 H36       -36.7756   66.0940   30.6734 H         1 <0>         0.3000 
@<TRIPOS>BOND
     1    1    3 ar   
     2    1    4 ar   
     3    1   37 1    
     4    2    5 ar   
     5    2    6 ar   
     6    2   38 1    
     7    3    7 ar   
     8    3   39 1    
     9    4    8 ar   
    10    4   40 1    
    11    5    9 ar   
    12    5   41 1    
    13    6   10 ar   
    14    6   42 1    
    15    7   25 ar   
    16    7   43 1    
    17    8   25 ar   
    18    8   44 1    
    19    9   26 ar   
    20    9   45 1    
    21   10   26 ar   
    22   10   46 1    
    23   11   13 ar   
    24   11   27 ar   
    25   11   47 1    
    26   12   14 ar   
    27   12   27 ar   
    28   12   48 1    
    29   13   28 ar   
    30   13   49 1    
    31   14   28 ar   
    32   14   50 1    
    33   15   16 1    
    34   15   17 1    
    35   15   51 1    
    36   15   52 1    
    37   16   18 1    
    38   16   53 1    
    39   16   54 1    
    40   17   19 1    
    41   17   55 1    
    42   17   56 1    
    43   18   21 1    
    44   18   57 1    
    45   18   58 1    
    46   19   25 1    
    47   19   59 1    
    48   19   60 1    
    49   20   22 1    
    50   20   29 1    
    51   20   61 1    
    52   20   62 1    
    53   21   30 1    
    54   21   63 1    
    55   21   64 1    
    56   22   31 1    
    57   22   65 1    
    58   22   66 1    
    59   23   26 1    
    60   23   27 1    
    61   23   67 1    
    62   23   68 1    
    63   24   29 1    
    64   24   36 1    
    65   24   69 1    
    66   24   70 1    
    67   28   36 1    
    68   29   32 1    
    69   29   71 1    
    70   30   32 am   BACKBONE|DICT|INTERRES
    71   30   34 2    
    72   31   33 1    
    73   31   35 2    
    74   32   72 1    
@<TRIPOS>SUBSTRUCTURE
     1 <0>         1 GROUP             0       ****    0 ROOT    
