@<TRIPOS>MOLECULE
parp1-ligand
45   48    1
SMALL
USER_CHARGES


@<TRIPOS>ATOM
      1 C1         23.2132    7.3751   24.0026 C.ar      1 <0>        -0.1490 
      2 C2         22.8766    8.5912   23.3759 C.ar      1 <0>        -0.1817 
      3 C3         24.0909    7.3617   25.1040 C.ar      1 <0>        -0.3696 
      4 C4         27.2360   12.8830   28.7022 C.ar      1 <0>        -0.1150 
      5 C5         26.4002   12.1775   27.8131 C.ar      1 <0>        -0.1150 
      6 C6         28.6161   10.8994   28.9629 C.ar      1 <0>        -0.1150 
      7 C7         29.3125   14.0109   32.6242 C.3       1 <0>        -0.1200 
      8 C8         30.0498   15.1881   31.9750 C.3       1 <0>        -0.1200 
      9 C9         28.4070   13.3382   31.5851 C.3       1 <0>        -0.1200 
     10 C10        30.8355   14.7382   30.7415 C.3       1 <0>         0.1700 
     11 C11        28.3442   12.2406   29.2940 C.ar      1 <0>        -0.1150 
     12 C12        26.6449   10.8165   27.5156 C.ar      1 <0>         0.0000 
     13 C13        23.4397    9.8075   23.8230 C.ar      1 <0>        -0.2456 
     14 C14        24.6495    8.5639   25.5918 C.ar      1 <0>         0.4982 
     15 C15        27.7695   10.1830   28.0998 C.ar      1 <0>         0.2200 
     16 C16        24.3217    9.7768   24.9274 C.ar      1 <0>         0.2299 
     17 C17        25.7485   10.1065   26.5965 C.ar      1 <0>         0.4788 
     18 C18        29.2099   12.9411   30.3284 C.3       1 <0>         0.3450 
     19 C19        23.0378   11.0941   23.1704 C.2       1 <0>         0.6150 
     20 N1         23.9601   12.0462   23.0964 N.am      1 <0>        -0.7600 
     21 N2         25.0530   10.7298   25.6234 N.pl3     1 <0>        -0.6257 
     22 N3         25.5212    8.7916   26.6432 N.2       1 <0>        -0.6787 
     23 N4         29.9207   14.1115   29.7612 N.4       1 <0>        -0.2000 
     24 O1         21.9206   11.2458   22.6959 O.2       1 <0>        -0.5000 
     25 F1         28.0528    8.8825   27.8584 F         1 <0>        -0.2200 
     26 H1         22.7926    6.4496   23.6366 H         1 <0>         0.1514 
     27 H2         22.1882    8.5871   22.5411 H         1 <0>         0.1607 
     28 H3         24.3444    6.4279   25.5873 H         1 <0>         0.2091 
     29 H4         27.0080   13.9122   28.9401 H         1 <0>         0.1150 
     30 H5         25.5485   12.6874   27.3871 H         1 <0>         0.1150 
     31 H6         29.4614   10.3935   29.4054 H         1 <0>         0.1150 
     32 H7         28.7247   14.3536   33.4790 H         1 <0>         0.0600 
     33 H8         30.0360   13.2916   33.0133 H         1 <0>         0.0600 
     34 H9         29.3424   15.9640   31.6839 H         1 <0>         0.0600 
     35 H10        30.7206   15.6458   32.6955 H         1 <0>         0.0600 
     36 H11        27.5973   14.0185   31.3210 H         1 <0>         0.0600 
     37 H12        27.9399   12.4551   32.0235 H         1 <0>         0.0600 
     38 H13        31.3444   15.5930   30.2960 H         1 <0>         0.0600 
     39 H14        31.6112   14.0271   31.0267 H         1 <0>         0.0600 
     40 H15        29.9823   12.2328   30.6393 H         1 <0>         0.0600 
     41 H16        23.7055   12.9424   22.6937 H         1 <0>         0.3800 
     42 H17        24.9027   11.8640   23.3981 H         1 <0>         0.3800 
     43 H18        25.0518   11.7283   25.4858 H         1 <0>         0.4072 
     44 H19        30.4582   13.8272   28.9519 H         1 <0>         0.3100 
     45 H20        29.2559   14.8146   29.4667 H         1 <0>         0.3100 
@<TRIPOS>BOND
     1    1    2 ar   
     2    1    3 ar   
     3    1   26 1    
     4    2   13 ar   
     5    2   27 1    
     6    3   14 ar   
     7    3   28 1    
     8    4    5 ar   
     9    4   11 ar   
    10    4   29 1    
    11    5   12 ar   
    12    5   30 1    
    13    6   11 ar   
    14    6   15 ar   
    15    6   31 1    
    16    7    8 1    
    17    7    9 1    
    18    7   32 1    
    19    7   33 1    
    20    8   10 1    
    21    8   34 1    
    22    8   35 1    
    23    9   18 1    
    24    9   36 1    
    25    9   37 1    
    26   10   23 1    
    27   10   38 1    
    28   10   39 1    
    29   11   18 1    
    30   12   15 ar   
    31   12   17 1    
    32   13   16 ar   
    33   13   19 1    
    34   14   16 ar   
    35   14   22 ar   
    36   15   25 1    
    37   16   21 ar   
    38   17   21 ar   
    39   17   22 ar   
    40   18   23 1    
    41   18   40 1    
    42   19   20 am   BACKBONE|DICT|INTERRES
    43   19   24 2    
    44   20   41 1    
    45   20   42 1    
    46   21   43 1    
    47   23   44 1    
    48   23   45 1    
@<TRIPOS>SUBSTRUCTURE
     1 <0>         1 GROUP             0       ****    0 ROOT    
@<TRIPOS>MOLECULE
parp1-ligand
45   48    1
SMALL
USER_CHARGES


@<TRIPOS>ATOM
      1 C1         23.2034    7.3712   23.9973 C.ar      1 <0>        -0.1490 
      2 C2         22.8680    8.5860   23.3654 C.ar      1 <0>        -0.1817 
      3 C3         24.0866    7.3590   25.0959 C.ar      1 <0>        -0.3696 
      4 C4         27.0821   12.9213   28.7235 C.ar      1 <0>        -0.1150 
      5 C5         26.3208   12.2050   27.7823 C.ar      1 <0>        -0.1150 
      6 C6         28.4760   10.9667   29.0523 C.ar      1 <0>        -0.1150 
      7 C7         29.8299   15.2446   31.4351 C.3       1 <0>        -0.1200 
      8 C8         31.2264   14.6260   31.4857 C.3       1 <0>        -0.1200 
      9 C9         28.9764   14.5769   30.3436 C.3       1 <0>        -0.1200 
     10 C10        31.1198   13.1129   31.6737 C.3       1 <0>         0.1700 
     11 C11        28.1635   12.3051   29.3901 C.ar      1 <0>        -0.1150 
     12 C12        26.5935   10.8473   27.5049 C.ar      1 <0>         0.0000 
     13 C13        23.4383    9.8005   23.8043 C.ar      1 <0>        -0.2456 
     14 C14        24.6488    8.5636   25.5753 C.ar      1 <0>         0.4982 
     15 C15        27.6990   10.2372   28.1384 C.ar      1 <0>         0.2200 
     16 C16        24.3207    9.7716   24.9030 C.ar      1 <0>         0.2299 
     17 C17        25.7361   10.1165   26.5715 C.ar      1 <0>         0.4788 
     18 C18        28.9379   13.0357   30.4952 C.3       1 <0>         0.3450 
     19 C19        23.0404   11.0918   23.1603 C.2       1 <0>         0.6150 
     20 N1         23.9638   12.0461   23.0954 N.am      1 <0>        -0.7600 
     21 N2         25.0475   10.7305   25.5918 N.pl3     1 <0>        -0.6257 
     22 N3         25.5205    8.7997   26.6252 N.2       1 <0>        -0.6787 
     23 N4         30.3206   12.5186   30.5822 N.4       1 <0>        -0.2000 
     24 O1         21.9206   11.2459   22.6959 O.2       1 <0>        -0.5000 
     25 F1         28.0352    8.9492   27.8952 F         1 <0>        -0.2200 
     26 H1         22.7784    6.4445   23.6373 H         1 <0>         0.1514 
     27 H2         22.1724    8.5809   22.5367 H         1 <0>         0.1607 
     28 H3         24.3399    6.4276   25.5838 H         1 <0>         0.2091 
     29 H4         26.7967   13.9396   28.9350 H         1 <0>         0.1150 
     30 H5         25.4886   12.7031   27.3082 H         1 <0>         0.1150 
     31 H6         29.3071   10.4461   29.4960 H         1 <0>         0.1150 
     32 H7         29.9207   16.3110   31.2285 H         1 <0>         0.0600 
     33 H8         29.3433   15.1496   32.4066 H         1 <0>         0.0600 
     34 H9         31.7648   14.8567   30.5651 H         1 <0>         0.0600 
     35 H10        31.8051   15.0631   32.2958 H         1 <0>         0.0600 
     36 H11        29.3794   14.8407   29.3639 H         1 <0>         0.0600 
     37 H12        27.9751   15.0042   30.3958 H         1 <0>         0.0600 
     38 H13        32.1125   12.6654   31.6764 H         1 <0>         0.0600 
     39 H14        30.6648   12.8735   32.6361 H         1 <0>         0.0600 
     40 H15        28.4389   12.7934   31.4354 H         1 <0>         0.0600 
     41 H16        23.7127   12.9445   22.6950 H         1 <0>         0.3800 
     42 H17        24.9055   11.8583   23.3953 H         1 <0>         0.3800 
     43 H18        25.0394   11.7289   25.4516 H         1 <0>         0.4072 
     44 H19        30.2815   11.5178   30.7077 H         1 <0>         0.3100 
     45 H20        30.7829   12.7151   29.7044 H         1 <0>         0.3100 
@<TRIPOS>BOND
     1    1    2 ar   
     2    1    3 ar   
     3    1   26 1    
     4    2   13 ar   
     5    2   27 1    
     6    3   14 ar   
     7    3   28 1    
     8    4    5 ar   
     9    4   11 ar   
    10    4   29 1    
    11    5   12 ar   
    12    5   30 1    
    13    6   11 ar   
    14    6   15 ar   
    15    6   31 1    
    16    7    8 1    
    17    7    9 1    
    18    7   32 1    
    19    7   33 1    
    20    8   10 1    
    21    8   34 1    
    22    8   35 1    
    23    9   18 1    
    24    9   36 1    
    25    9   37 1    
    26   10   23 1    
    27   10   38 1    
    28   10   39 1    
    29   11   18 1    
    30   12   15 ar   
    31   12   17 1    
    32   13   16 ar   
    33   13   19 1    
    34   14   16 ar   
    35   14   22 ar   
    36   15   25 1    
    37   16   21 ar   
    38   17   21 ar   
    39   17   22 ar   
    40   18   23 1    
    41   18   40 1    
    42   19   20 am   BACKBONE|DICT|INTERRES
    43   19   24 2    
    44   20   41 1    
    45   20   42 1    
    46   21   43 1    
    47   23   44 1    
    48   23   45 1    
@<TRIPOS>SUBSTRUCTURE
     1 <0>         1 GROUP             0       ****    0 ROOT    
@<TRIPOS>MOLECULE
parp1-ligand
45   48    1
SMALL
USER_CHARGES


@<TRIPOS>ATOM
      1 C1         23.3383    7.4943   24.2342 C.ar      1 <0>        -0.1490 
      2 C2         22.9664    8.6579   23.5290 C.ar      1 <0>        -0.1817 
      3 C3         24.2108    7.5736   25.3389 C.ar      1 <0>        -0.3696 
      4 C4         26.9330   13.3883   28.7399 C.ar      1 <0>        -0.1150 
      5 C5         26.2381   12.6015   27.8044 C.ar      1 <0>        -0.1150 
      6 C6         28.4568   11.5374   29.1418 C.ar      1 <0>        -0.1150 
      7 C7         30.9225   14.6384   31.3759 C.3       1 <0>        -0.1200 
      8 C8         30.6611   13.9130   32.6997 C.3       1 <0>        -0.1200 
      9 C9         30.2271   13.8878   30.2347 C.3       1 <0>        -0.1200 
     10 C10        29.1541   13.7742   32.9520 C.3       1 <0>         0.1700 
     11 C11        28.0357   12.8548   29.4345 C.ar      1 <0>        -0.1150 
     12 C12        26.6096   11.2596   27.5586 C.ar      1 <0>         0.0000 
     13 C13        23.4917    9.9174   23.8980 C.ar      1 <0>        -0.2456 
     14 C14        24.7303    8.8210   25.7449 C.ar      1 <0>         0.4982 
     15 C15        27.7519   10.7409   28.2151 C.ar      1 <0>         0.2200 
     16 C16        24.3810    9.9780   24.9975 C.ar      1 <0>         0.2299 
     17 C17        25.7945   10.4512   26.6450 C.ar      1 <0>         0.4788 
     18 C18        28.7251   13.6838   30.5101 C.3       1 <0>         0.3450 
     19 C19        23.0399   11.1574   23.1858 C.2       1 <0>         0.6150 
     20 N1         23.9206   12.1481   23.0955 N.am      1 <0>        -0.7600 
     21 N2         25.0900   10.9906   25.6299 N.pl3     1 <0>        -0.6257 
     22 N3         25.6156    9.1325   26.7661 N.2       1 <0>        -0.6787 
     23 N4         28.5030   13.0558   31.8334 N.4       1 <0>        -0.2000 
     24 O1         21.9208   11.2454   22.6959 O.2       1 <0>        -0.5000 
     25 F1         28.1831    9.4791   27.9808 F         1 <0>        -0.2200 
     26 H1         22.9427    6.5347   23.9253 H         1 <0>         0.1514 
     27 H2         22.2734    8.5841   22.6996 H         1 <0>         0.1607 
     28 H3         24.4915    6.6777   25.8759 H         1 <0>         0.2091 
     29 H4         26.5990   14.3977   28.9320 H         1 <0>         0.1150 
     30 H5         25.3801   13.0316   27.3099 H         1 <0>         0.1150 
     31 H6         29.3110   11.1085   29.6440 H         1 <0>         0.1150 
     32 H7         31.9939   14.7032   31.1875 H         1 <0>         0.0600 
     33 H8         30.5528   15.6646   31.4279 H         1 <0>         0.0600 
     34 H9         31.1207   12.9263   32.6851 H         1 <0>         0.0600 
     35 H10        31.1320   14.4461   33.5191 H         1 <0>         0.0600 
     36 H11        30.7199   12.9251   30.0961 H         1 <0>         0.0600 
     37 H12        30.3540   14.4387   29.3015 H         1 <0>         0.0600 
     38 H13        28.9733   13.2378   33.8835 H         1 <0>         0.0600 
     39 H14        28.7018   14.7626   33.0636 H         1 <0>         0.0600 
     40 H15        28.2566   14.6691   30.5416 H         1 <0>         0.0600 
     41 H16        23.6306   13.0271   22.6786 H         1 <0>         0.3800 
     42 H17        24.8654   12.0121   23.4133 H         1 <0>         0.3800 
     43 H18        25.0557   11.9788   25.4400 H         1 <0>         0.4072 
     44 H19        27.5088   13.0114   32.0054 H         1 <0>         0.3100 
     45 H20        28.8656   12.1151   31.7968 H         1 <0>         0.3100 
@<TRIPOS>BOND
     1    1    2 ar   
     2    1    3 ar   
     3    1   26 1    
     4    2   13 ar   
     5    2   27 1    
     6    3   14 ar   
     7    3   28 1    
     8    4    5 ar   
     9    4   11 ar   
    10    4   29 1    
    11    5   12 ar   
    12    5   30 1    
    13    6   11 ar   
    14    6   15 ar   
    15    6   31 1    
    16    7    8 1    
    17    7    9 1    
    18    7   32 1    
    19    7   33 1    
    20    8   10 1    
    21    8   34 1    
    22    8   35 1    
    23    9   18 1    
    24    9   36 1    
    25    9   37 1    
    26   10   23 1    
    27   10   38 1    
    28   10   39 1    
    29   11   18 1    
    30   12   15 ar   
    31   12   17 1    
    32   13   16 ar   
    33   13   19 1    
    34   14   16 ar   
    35   14   22 ar   
    36   15   25 1    
    37   16   21 ar   
    38   17   21 ar   
    39   17   22 ar   
    40   18   23 1    
    41   18   40 1    
    42   19   20 am   BACKBONE|DICT|INTERRES
    43   19   24 2    
    44   20   41 1    
    45   20   42 1    
    46   21   43 1    
    47   23   44 1    
    48   23   45 1    
@<TRIPOS>SUBSTRUCTURE
     1 <0>         1 GROUP             0       ****    0 ROOT    
