@<TRIPOS>MOLECULE
pgh1-ligand
55   57    1
SMALL
USER_CHARGES


@<TRIPOS>ATOM
      1 C1         20.0872   42.7954   12.0251 C.3       1 <0>        -0.1800 
      2 C2         20.1382   49.0465   16.1952 C.3       1 <0>        -0.0650 
      3 C3         19.3918   48.1034    7.6994 C.3       1 <0>         0.1100 
      4 C4         22.9239   52.8144   13.3162 C.ar      1 <0>        -0.1150 
      5 C5         23.1331   50.4829   12.6358 C.ar      1 <0>        -0.1150 
      6 C6         23.9990   53.1394   12.4639 C.ar      1 <0>        -0.1150 
      7 C7         24.1366   50.8147   11.7385 C.ar      1 <0>        -0.1150 
      8 C8         20.2232   49.6013   10.0769 C.ar      1 <0>        -0.0888 
      9 C9         20.4937   50.2695   11.2844 C.ar      1 <0>        -0.3541 
     10 C10        19.1856   47.8442   11.3679 C.ar      1 <0>        -0.2243 
     11 C11        18.7214   42.7745   12.7280 C.3       1 <0>        -0.1200 
     12 C12        18.2768   47.0473   14.5532 C.3       1 <0>        -0.0641 
     13 C13        19.5858   42.2962   15.1128 C.3       1 <0>         0.1450 
     14 C14        19.9141   49.0568   14.7148 C.ar      1 <0>        -0.0293 
     15 C15        22.4885   51.4750   13.4003 C.ar      1 <0>        -0.1150 
     16 C16        24.5930   52.1296   11.6811 C.ar      1 <0>         0.1800 
     17 C17        19.5855   48.3461   10.1155 C.ar      1 <0>         0.0267 
     18 C18        20.1975   49.6622   12.5332 C.ar      1 <0>         0.2860 
     19 C19        19.4539   48.4640   12.6041 C.ar      1 <0>         0.1233 
     20 C20        19.1574   48.1671   13.9903 C.ar      1 <0>        -0.1749 
     21 C21        18.6034   43.1077   14.2328 C.3       1 <0>         0.1400 
     22 C22        18.7856   45.6690   14.1169 C.2       1 <0>         0.5000 
     23 C23        21.3819   51.0557   14.3099 C.2       1 <0>         0.7375 
     24 N1         18.3838   44.5177   14.6876 N.am      1 <0>        -0.5000 
     25 N2         20.5237   49.9844   13.8499 N.pl3     1 <0>        -0.2434 
     26 O1         19.2646   40.9169   15.1142 O.3       1 <0>        -0.6830 
     27 O2         19.5855   45.6262   13.1904 O.2       1 <0>        -0.5000 
     28 O3         21.1856   51.5847   15.4037 O.2       1 <0>        -0.5000 
     29 O4         19.2383   47.5844    9.0172 O.3       1 <0>        -0.3000 
     30 Cl1        26.0229   52.3845   10.7904 Cl        1 <0>        -0.1800 
     31 H1         19.9744   42.4708   10.9899 H         1 <0>         0.0600 
     32 H2         20.7854   42.1018   12.4928 H         1 <0>         0.0600 
     33 H3         20.5455   43.7777   11.9903 H         1 <0>         0.0600 
     34 H4         19.8049   48.1224   16.6626 H         1 <0>         0.0600 
     35 H5         21.2063   49.1260   16.3904 H         1 <0>         0.0600 
     36 H6         19.6248   49.8734   16.6855 H         1 <0>         0.0600 
     37 H7         18.6956   47.5837    7.0412 H         1 <0>         0.0300 
     38 H8         19.1863   49.1669    7.5905 H         1 <0>         0.0300 
     39 H9         20.3857   47.9089    7.3172 H         1 <0>         0.0300 
     40 H10        22.4647   53.5819   13.9236 H         1 <0>         0.1150 
     41 H11        22.8512   49.4478   12.7022 H         1 <0>         0.1150 
     42 H12        24.3857   54.1470   12.4375 H         1 <0>         0.1150 
     43 H13        24.6443   50.0390   11.1904 H         1 <0>         0.1150 
     44 H14        20.5049   50.0640    9.1443 H         1 <0>         0.1359 
     45 H15        20.9907   51.2261   11.2362 H         1 <0>         0.1796 
     46 H16        18.6464   46.9246   11.3905 H         1 <0>         0.1699 
     47 H17        17.9860   43.3585   12.1970 H         1 <0>         0.0600 
     48 H18        18.3861   41.7438   12.6117 H         1 <0>         0.0600 
     49 H19        17.2581   47.1706   14.1848 H         1 <0>         0.0600 
     50 H20        18.2056   47.0777   15.6385 H         1 <0>         0.0600 
     51 H21        20.6062   42.3838   14.7581 H         1 <0>         0.0600 
     52 H22        19.5863   42.6541   16.1420 H         1 <0>         0.0600 
     53 H23        17.6057   42.7002   14.3904 H         1 <0>         0.0600 
     54 H24        17.7446   44.6158   15.4643 H         1 <0>         0.3000 
     55 H25        18.3977   40.7967   15.4713 H         1 <0>         0.4180 
@<TRIPOS>BOND
     1    1   11 1    
     2    1   31 1    
     3    1   32 1    
     4    1   33 1    
     5    2   14 1    
     6    2   34 1    
     7    2   35 1    
     8    2   36 1    
     9    3   29 1    
    10    3   37 1    
    11    3   38 1    
    12    3   39 1    
    13    4    6 ar   
    14    4   15 ar   
    15    4   40 1    
    16    5    7 ar   
    17    5   15 ar   
    18    5   41 1    
    19    6   16 ar   
    20    6   42 1    
    21    7   16 ar   
    22    7   43 1    
    23    8    9 ar   
    24    8   17 ar   
    25    8   44 1    
    26    9   18 ar   
    27    9   45 1    
    28   10   17 ar   
    29   10   19 ar   
    30   10   46 1    
    31   11   21 1    
    32   11   47 1    
    33   11   48 1    
    34   12   20 1    
    35   12   22 1    
    36   12   49 1    
    37   12   50 1    
    38   13   21 1    
    39   13   26 1    
    40   13   51 1    
    41   13   52 1    
    42   14   20 ar   
    43   14   25 ar   
    44   15   23 1    
    45   16   30 1    
    46   17   29 1    
    47   18   19 ar   
    48   18   25 ar   
    49   19   20 ar   
    50   21   24 1    
    51   21   53 1    
    52   22   24 am   BACKBONE|DICT|INTERRES
    53   22   27 2    
    54   23   25 1    
    55   23   28 2    
    56   24   54 1    
    57   26   55 1    
@<TRIPOS>SUBSTRUCTURE
     1 <0>         1 GROUP             0       ****    0 ROOT    
@<TRIPOS>MOLECULE
pgh1-ligand
55   57    1
SMALL
USER_CHARGES


@<TRIPOS>ATOM
      1 C1         17.0320   41.5435   13.9905 C.3       1 <0>        -0.1800 
      2 C2         20.3699   49.2102   15.8711 C.3       1 <0>        -0.0650 
      3 C3         19.7629   48.6019    7.3419 C.3       1 <0>         0.1100 
      4 C4         23.2873   53.0038   13.2638 C.ar      1 <0>        -0.1150 
      5 C5         23.3649   50.7526   12.3328 C.ar      1 <0>        -0.1150 
      6 C6         24.4130   53.3360   12.4942 C.ar      1 <0>        -0.1150 
      7 C7         24.3855   51.1301   11.4673 C.ar      1 <0>        -0.1150 
      8 C8         20.3857   50.0191    9.7698 C.ar      1 <0>        -0.0888 
      9 C9         20.6836   50.6382   10.9951 C.ar      1 <0>        -0.3541 
     10 C10        19.4863   48.1319   10.9786 C.ar      1 <0>        -0.2243 
     11 C11        17.3125   43.0566   13.9987 C.3       1 <0>        -0.1200 
     12 C12        18.5629   47.3184   14.0863 C.3       1 <0>        -0.0641 
     13 C13        19.5290   42.9482   12.7904 C.3       1 <0>         0.1450 
     14 C14        20.1793   49.2814   14.3765 C.ar      1 <0>        -0.0293 
     15 C15        22.7693   51.6984   13.1935 C.ar      1 <0>        -0.1150 
     16 C16        24.9520   52.4010   11.5906 C.ar      1 <0>         0.1800 
     17 C17        19.8561   48.7126    9.7540 C.ar      1 <0>         0.0267 
     18 C18        20.4377   49.9690   12.2151 C.ar      1 <0>         0.2860 
     19 C19        19.7321   48.7475   12.2307 C.ar      1 <0>         0.1233 
     20 C20        19.4339   48.4329   13.6006 C.ar      1 <0>        -0.1749 
     21 C21        18.7855   43.4655   14.0694 C.3       1 <0>         0.1400 
     22 C22        19.1855   45.9852   13.7108 C.2       1 <0>         0.5000 
     23 C23        21.6284   51.2772   14.0531 C.2       1 <0>         0.7375 
     24 N1         18.7757   44.9116   14.3976 N.am      1 <0>        -0.5000 
     25 N2         20.7854   50.2355   13.5435 N.pl3     1 <0>        -0.2434 
     26 O1         20.1337   41.7013   13.0708 O.3       1 <0>        -0.6830 
     27 O2         19.9855   45.9081   12.7904 O.2       1 <0>        -0.5000 
     28 O3         21.3904   51.7824   15.1500 O.2       1 <0>        -0.5000 
     29 O4         19.5855   47.9844    8.6130 O.3       1 <0>        -0.3000 
     30 Cl1        26.4305   52.7428   10.7904 Cl        1 <0>        -0.1800 
     31 H1         15.9660   41.3453   13.8755 H         1 <0>         0.0600 
     32 H2         17.3522   41.0755   14.9196 H         1 <0>         0.0600 
     33 H3         17.5581   41.0278   13.1904 H         1 <0>         0.0600 
     34 H4         20.0688   48.2459   16.2760 H         1 <0>         0.0600 
     35 H5         21.4184   49.3352   16.1401 H         1 <0>         0.0600 
     36 H6         19.7945   49.9780   16.3880 H         1 <0>         0.0600 
     37 H7         19.5358   47.8756    6.5613 H         1 <0>         0.0300 
     38 H8         19.1004   49.4539    7.1905 H         1 <0>         0.0300 
     39 H9         20.7855   48.9352    7.1853 H         1 <0>         0.0300 
     40 H10        22.8669   53.7298   13.9461 H         1 <0>         0.1150 
     41 H11        23.0294   49.7267   12.2922 H         1 <0>         0.1150 
     42 H12        24.8677   54.3096   12.6049 H         1 <0>         0.1150 
     43 H13        24.7856   50.3975   10.7904 H         1 <0>         0.1150 
     44 H14        20.5830   50.5567    8.8567 H         1 <0>         0.1359 
     45 H15        21.1555   51.6050   10.9860 H         1 <0>         0.1796 
     46 H16        18.9761   47.1845   10.9437 H         1 <0>         0.1699 
     47 H17        16.8700   43.5845   13.1904 H         1 <0>         0.0600 
     48 H18        16.7466   43.5148   14.7904 H         1 <0>         0.0600 
     49 H19        17.5822   47.3860   13.6148 H         1 <0>         0.0600 
     50 H20        18.3860   47.3674   15.1601 H         1 <0>         0.0600 
     51 H21        18.8306   42.7851   11.9686 H         1 <0>         0.0600 
     52 H22        20.3146   43.5857   12.3915 H         1 <0>         0.0600 
     53 H23        19.2371   42.9902   14.9395 H         1 <0>         0.0600 
     54 H24        18.1754   45.1314   15.1805 H         1 <0>         0.3000 
     55 H25        20.5807   41.3975   12.2938 H         1 <0>         0.4180 
@<TRIPOS>BOND
     1    1   11 1    
     2    1   31 1    
     3    1   32 1    
     4    1   33 1    
     5    2   14 1    
     6    2   34 1    
     7    2   35 1    
     8    2   36 1    
     9    3   29 1    
    10    3   37 1    
    11    3   38 1    
    12    3   39 1    
    13    4    6 ar   
    14    4   15 ar   
    15    4   40 1    
    16    5    7 ar   
    17    5   15 ar   
    18    5   41 1    
    19    6   16 ar   
    20    6   42 1    
    21    7   16 ar   
    22    7   43 1    
    23    8    9 ar   
    24    8   17 ar   
    25    8   44 1    
    26    9   18 ar   
    27    9   45 1    
    28   10   17 ar   
    29   10   19 ar   
    30   10   46 1    
    31   11   21 1    
    32   11   47 1    
    33   11   48 1    
    34   12   20 1    
    35   12   22 1    
    36   12   49 1    
    37   12   50 1    
    38   13   21 1    
    39   13   26 1    
    40   13   51 1    
    41   13   52 1    
    42   14   20 ar   
    43   14   25 ar   
    44   15   23 1    
    45   16   30 1    
    46   17   29 1    
    47   18   19 ar   
    48   18   25 ar   
    49   19   20 ar   
    50   21   24 1    
    51   21   53 1    
    52   22   24 am   BACKBONE|DICT|INTERRES
    53   22   27 2    
    54   23   25 1    
    55   23   28 2    
    56   24   54 1    
    57   26   55 1    
@<TRIPOS>SUBSTRUCTURE
     1 <0>         1 GROUP             0       ****    0 ROOT    
@<TRIPOS>MOLECULE
pgh1-ligand
55   57    1
SMALL
USER_CHARGES


@<TRIPOS>ATOM
      1 C1         19.1901   41.8395   12.2604 C.3       1 <0>        -0.1800 
      2 C2         20.3860   49.2981   16.1395 C.3       1 <0>        -0.0650 
      3 C3         19.3792   48.0263    7.7185 C.3       1 <0>         0.1100 
      4 C4         23.3683   50.6942   12.3785 C.ar      1 <0>        -0.1150 
      5 C5         23.2468   52.9460   13.2906 C.ar      1 <0>        -0.1150 
      6 C6         24.3806   51.0977   11.5055 C.ar      1 <0>        -0.1150 
      7 C7         24.3600   53.3067   12.5125 C.ar      1 <0>        -0.1150 
      8 C8         20.3269   49.5785    9.9907 C.ar      1 <0>        -0.0888 
      9 C9         20.6873   50.2823   11.1542 C.ar      1 <0>        -0.3541 
     10 C10        19.1855   47.9844   11.3874 C.ar      1 <0>        -0.2243 
     11 C11        18.9288   43.2072   12.8295 C.3       1 <0>        -0.1200 
     12 C12        18.4004   47.3233   14.6247 C.3       1 <0>        -0.0641 
     13 C13        19.5855   42.4669   15.1905 C.3       1 <0>         0.1450 
     14 C14        20.1447   49.2536   14.6558 C.ar      1 <0>        -0.0293 
     15 C15        22.7515   51.6273   13.2382 C.ar      1 <0>        -0.1150 
     16 C16        24.9168   52.3845   11.6086 C.ar      1 <0>         0.1800 
     17 C17        19.5868   48.3847   10.1048 C.ar      1 <0>         0.0267 
     18 C18        20.3997   49.7536   12.4395 C.ar      1 <0>         0.2860 
     19 C19        19.5665   48.6219   12.5858 C.ar      1 <0>         0.1233 
     20 C20        19.3119   48.3849   13.9929 C.ar      1 <0>        -0.1749 
     21 C21        18.6261   43.3539   14.3253 C.3       1 <0>         0.1400 
     22 C22        18.8312   45.9214   14.1846 C.2       1 <0>         0.5000 
     23 C23        21.6343   51.1997   14.1370 C.2       1 <0>         0.7375 
     24 N1         18.3907   44.7779   14.7884 N.am      1 <0>        -0.5000 
     25 N2         20.7732   50.1190   13.7317 N.pl3     1 <0>        -0.2434 
     26 O1         19.1856   41.1109   15.1905 O.3       1 <0>        -0.6830 
     27 O2         19.5855   45.8722   13.2129 O.2       1 <0>        -0.5000 
     28 O3         21.3960   51.7843   15.1903 O.2       1 <0>        -0.5000 
     29 O4         19.1848   47.5847    9.0556 O.3       1 <0>        -0.3000 
     30 Cl1        26.3856   52.7505   10.7905 Cl        1 <0>        -0.1800 
     31 H1         19.2501   41.9845   11.1796 H         1 <0>         0.0600 
     32 H2         18.3854   41.1532   12.5006 H         1 <0>         0.0600 
     33 H3         20.1378   41.4167   12.5950 H         1 <0>         0.0600 
     34 H4         20.0646   48.3848   16.6357 H         1 <0>         0.0600 
     35 H5         21.4479   49.4087   16.3626 H         1 <0>         0.0600 
     36 H6         19.8560   50.1279   16.6043 H         1 <0>         0.0600 
     37 H7         18.6938   47.4845    7.0669 H         1 <0>         0.0300 
     38 H8         19.1856   49.0875    7.5706 H         1 <0>         0.0300 
     39 H9         20.3855   47.8092    7.3802 H         1 <0>         0.0300 
     40 H10        23.0519   49.6618   12.3472 H         1 <0>         0.1150 
     41 H11        22.8186   53.6680   13.9726 H         1 <0>         0.1150 
     42 H12        24.7855   50.3845   10.8128 H         1 <0>         0.1150 
     43 H13        24.7887   54.2931   12.6159 H         1 <0>         0.1150 
     44 H14        20.6166   49.9694    9.0293 H         1 <0>         0.1359 
     45 H15        21.2409   51.2008   11.0403 H         1 <0>         0.1796 
     46 H16        18.5160   47.1526   11.4522 H         1 <0>         0.1699 
     47 H17        19.8100   43.7481   12.5028 H         1 <0>         0.0600 
     48 H18        18.0293   43.5844   12.3660 H         1 <0>         0.0600 
     49 H19        17.3720   47.4800   14.2974 H         1 <0>         0.0600 
     50 H20        18.3847   47.3729   15.7119 H         1 <0>         0.0600 
     51 H21        20.6033   42.3845   14.8187 H         1 <0>         0.0600 
     52 H22        19.5936   42.8218   16.2210 H         1 <0>         0.0600 
     53 H23        17.6302   42.9141   14.3905 H         1 <0>         0.0600 
     54 H24        17.7710   44.8858   15.5798 H         1 <0>         0.3000 
     55 H25        19.2173   40.7847   14.3030 H         1 <0>         0.4180 
@<TRIPOS>BOND
     1    1   11 1    
     2    1   31 1    
     3    1   32 1    
     4    1   33 1    
     5    2   14 1    
     6    2   34 1    
     7    2   35 1    
     8    2   36 1    
     9    3   29 1    
    10    3   37 1    
    11    3   38 1    
    12    3   39 1    
    13    4    6 ar   
    14    4   15 ar   
    15    4   40 1    
    16    5    7 ar   
    17    5   15 ar   
    18    5   41 1    
    19    6   16 ar   
    20    6   42 1    
    21    7   16 ar   
    22    7   43 1    
    23    8    9 ar   
    24    8   17 ar   
    25    8   44 1    
    26    9   18 ar   
    27    9   45 1    
    28   10   17 ar   
    29   10   19 ar   
    30   10   46 1    
    31   11   21 1    
    32   11   47 1    
    33   11   48 1    
    34   12   20 1    
    35   12   22 1    
    36   12   49 1    
    37   12   50 1    
    38   13   21 1    
    39   13   26 1    
    40   13   51 1    
    41   13   52 1    
    42   14   20 ar   
    43   14   25 ar   
    44   15   23 1    
    45   16   30 1    
    46   17   29 1    
    47   18   19 ar   
    48   18   25 ar   
    49   19   20 ar   
    50   21   24 1    
    51   21   53 1    
    52   22   24 am   BACKBONE|DICT|INTERRES
    53   22   27 2    
    54   23   25 1    
    55   23   28 2    
    56   24   54 1    
    57   26   55 1    
@<TRIPOS>SUBSTRUCTURE
     1 <0>         1 GROUP             0       ****    0 ROOT    
@<TRIPOS>MOLECULE
pgh1-ligand
55   57    1
SMALL
USER_CHARGES


@<TRIPOS>ATOM
      1 C1         19.7423   41.5845   12.3903 C.3       1 <0>        -0.1800 
      2 C2         20.3629   49.1824   15.9111 C.3       1 <0>        -0.0650 
      3 C3         19.7447   48.6165    7.3806 C.3       1 <0>         0.1100 
      4 C4         23.3696   50.7250   12.3605 C.ar      1 <0>        -0.1150 
      5 C5         23.2719   52.9780   13.2844 C.ar      1 <0>        -0.1150 
      6 C6         24.3850   51.1105   11.4894 C.ar      1 <0>        -0.1150 
      7 C7         24.3858   53.3225   12.5029 C.ar      1 <0>        -0.1150 
      8 C8         20.3855   50.0078    9.8157 C.ar      1 <0>        -0.0888 
      9 C9         20.6799   50.6189   11.0445 C.ar      1 <0>        -0.3541 
     10 C10        19.4642   48.1230   11.0134 C.ar      1 <0>        -0.2243 
     11 C11        19.2780   43.0115   12.6469 C.3       1 <0>        -0.1200 
     12 C12        18.5762   47.2655   14.1315 C.3       1 <0>        -0.0641 
     13 C13        19.6093   42.5212   15.1523 C.3       1 <0>         0.1450 
     14 C14        20.1774   49.2446   14.4172 C.ar      1 <0>        -0.0293 
     15 C15        22.7682   51.6665   13.2231 C.ar      1 <0>        -0.1150 
     16 C16        24.9321   52.3904   11.6007 C.ar      1 <0>         0.1800 
     17 C17        19.8454   48.7065    9.7932 C.ar      1 <0>         0.0267 
     18 C18        20.4331   49.9408   12.2594 C.ar      1 <0>         0.2860 
     19 C19        19.7219   48.7218   12.2707 C.ar      1 <0>         0.1233 
     20 C20        19.4362   48.3912   13.6415 C.ar      1 <0>        -0.1749 
     21 C21        18.8212   43.3561   14.0874 C.3       1 <0>         0.1400 
     22 C22        19.1855   45.9313   13.7297 C.2       1 <0>         0.5000 
     23 C23        21.6341   51.2392   14.0914 C.2       1 <0>         0.7375 
     24 N1         18.7173   44.8273   14.3904 N.am      1 <0>        -0.5000 
     25 N2         20.7855   50.1994   13.5859 N.pl3     1 <0>        -0.2434 
     26 O1         19.1856   41.1762   15.2434 O.3       1 <0>        -0.6830 
     27 O2         19.9855   45.8795   12.7905 O.2       1 <0>        -0.5000 
     28 O3         21.4033   51.7425   15.1904 O.2       1 <0>        -0.5000 
     29 O4         19.5855   47.9845    8.6468 O.3       1 <0>        -0.3000 
     30 Cl1        26.4010   52.7488   10.7904 Cl        1 <0>        -0.1800 
     31 H1         19.9856   41.4656   11.3344 H         1 <0>         0.0600 
     32 H2         18.9640   40.8793   12.6787 H         1 <0>         0.0600 
     33 H3         20.6573   41.3374   12.9280 H         1 <0>         0.0600 
     34 H4         20.0546   48.2249   16.3263 H         1 <0>         0.0600 
     35 H5         21.4107   49.3059   16.1842 H         1 <0>         0.0600 
     36 H6         19.7873   49.9605   16.4108 H         1 <0>         0.0600 
     37 H7         19.3872   47.9446    6.6002 H         1 <0>         0.0300 
     38 H8         19.1855   49.5461    7.2891 H         1 <0>         0.0300 
     39 H9         20.7855   48.8354    7.1675 H         1 <0>         0.0300 
     40 H10        23.0399   49.6970   12.3235 H         1 <0>         0.1150 
     41 H11        22.8474   53.7018   13.9667 H         1 <0>         0.1150 
     42 H12        24.7856   50.3845   10.8050 H         1 <0>         0.1150 
     43 H13        24.8276   54.3030   12.6054 H         1 <0>         0.1150 
     44 H14        20.6009   50.5448    8.9065 H         1 <0>         0.1359 
     45 H15        21.1550   51.5845   11.0407 H         1 <0>         0.1796 
     46 H16        18.9413   47.1845   10.9719 H         1 <0>         0.1699 
     47 H17        20.1134   43.6133   12.3103 H         1 <0>         0.0600 
     48 H18        18.4316   43.1845   11.9904 H         1 <0>         0.0600 
     49 H19        17.5855   47.3391   13.6821 H         1 <0>         0.0600 
     50 H20        18.4206   47.2985   15.2088 H         1 <0>         0.0600 
     51 H21        20.6578   42.3845   14.8998 H         1 <0>         0.0600 
     52 H22        19.5855   42.9878   16.1370 H         1 <0>         0.0600 
     53 H23        17.7856   43.0198   14.1594 H         1 <0>         0.0600 
     54 H24        18.0712   45.0345   15.1399 H         1 <0>         0.3000 
     55 H25        19.3094   40.7630   14.4017 H         1 <0>         0.4180 
@<TRIPOS>BOND
     1    1   11 1    
     2    1   31 1    
     3    1   32 1    
     4    1   33 1    
     5    2   14 1    
     6    2   34 1    
     7    2   35 1    
     8    2   36 1    
     9    3   29 1    
    10    3   37 1    
    11    3   38 1    
    12    3   39 1    
    13    4    6 ar   
    14    4   15 ar   
    15    4   40 1    
    16    5    7 ar   
    17    5   15 ar   
    18    5   41 1    
    19    6   16 ar   
    20    6   42 1    
    21    7   16 ar   
    22    7   43 1    
    23    8    9 ar   
    24    8   17 ar   
    25    8   44 1    
    26    9   18 ar   
    27    9   45 1    
    28   10   17 ar   
    29   10   19 ar   
    30   10   46 1    
    31   11   21 1    
    32   11   47 1    
    33   11   48 1    
    34   12   20 1    
    35   12   22 1    
    36   12   49 1    
    37   12   50 1    
    38   13   21 1    
    39   13   26 1    
    40   13   51 1    
    41   13   52 1    
    42   14   20 ar   
    43   14   25 ar   
    44   15   23 1    
    45   16   30 1    
    46   17   29 1    
    47   18   19 ar   
    48   18   25 ar   
    49   19   20 ar   
    50   21   24 1    
    51   21   53 1    
    52   22   24 am   BACKBONE|DICT|INTERRES
    53   22   27 2    
    54   23   25 1    
    55   23   28 2    
    56   24   54 1    
    57   26   55 1    
@<TRIPOS>SUBSTRUCTURE
     1 <0>         1 GROUP             0       ****    0 ROOT    
@<TRIPOS>MOLECULE
pgh1-ligand
55   57    1
SMALL
USER_CHARGES


@<TRIPOS>ATOM
      1 C1         19.7600   41.5843   12.3767 C.3       1 <0>        -0.1800 
      2 C2         20.3708   49.1449   15.9177 C.3       1 <0>        -0.0650 
      3 C3         19.7451   48.6223    7.3920 C.3       1 <0>         0.1100 
      4 C4         23.3642   50.7199   12.3673 C.ar      1 <0>        -0.1150 
      5 C5         23.2711   52.9735   13.2918 C.ar      1 <0>        -0.1150 
      6 C6         24.3786   51.1062   11.4956 C.ar      1 <0>        -0.1150 
      7 C7         24.3849   53.3180   12.5087 C.ar      1 <0>        -0.1150 
      8 C8         20.3858   50.0067    9.8279 C.ar      1 <0>        -0.0888 
      9 C9         20.6737   50.6190   11.0573 C.ar      1 <0>        -0.3541 
     10 C10        19.4496   48.1238   11.0212 C.ar      1 <0>        -0.2243 
     11 C11        19.2831   43.0077   12.6412 C.3       1 <0>        -0.1200 
     12 C12        18.5788   47.2557   14.1426 C.3       1 <0>        -0.0641 
     13 C13        19.6140   42.5071   15.1464 C.3       1 <0>         0.1450 
     14 C14        20.1808   49.2306   14.4252 C.ar      1 <0>        -0.0293 
     15 C15        22.7646   51.6618   13.2309 C.ar      1 <0>        -0.1150 
     16 C16        24.9260   52.3847   11.6049 C.ar      1 <0>         0.1800 
     17 C17        19.8398   48.7076    9.8035 C.ar      1 <0>         0.0267 
     18 C18        20.4272   49.9370   12.2699 C.ar      1 <0>         0.2860 
     19 C19        19.7123   48.7196   12.2789 C.ar      1 <0>         0.1233 
     20 C20        19.4333   48.3843   13.6493 C.ar      1 <0>        -0.1749 
     21 C21        18.8264   43.3449   14.0836 C.3       1 <0>         0.1400 
     22 C22        19.1855   45.9230   13.7320 C.2       1 <0>         0.5000 
     23 C23        21.6286   51.2341   14.0978 C.2       1 <0>         0.7375 
     24 N1         18.7166   44.8163   14.3900 N.am      1 <0>        -0.5000 
     25 N2         20.7835   50.1913   13.5960 N.pl3     1 <0>        -0.2434 
     26 O1         19.1875   41.1606   15.2298 O.3       1 <0>        -0.6830 
     27 O2         19.9848   45.8762   12.7904 O.2       1 <0>        -0.5000 
     28 O3         21.3871   51.7458   15.1896 O.2       1 <0>        -0.5000 
     29 O4         19.5854   47.9871    8.6554 O.3       1 <0>        -0.3000 
     30 Cl1        26.3963   52.7204   10.7905 Cl        1 <0>        -0.1800 
     31 H1         19.9897   41.4633   11.3183 H         1 <0>         0.0600 
     32 H2         19.0030   40.8637   12.6886 H         1 <0>         0.0600 
     33 H3         20.6841   41.3531   12.9055 H         1 <0>         0.0600 
     34 H4         20.1964   48.1354   16.2864 H         1 <0>         0.0600 
     35 H5         21.3882   49.3972   16.2127 H         1 <0>         0.0600 
     36 H6         19.6838   49.8079   16.4418 H         1 <0>         0.0600 
     37 H7         19.3938   47.9517    6.6069 H         1 <0>         0.0300 
     38 H8         19.1858   49.5511    7.3019 H         1 <0>         0.0300 
     39 H9         20.7853   48.8451    7.1884 H         1 <0>         0.0300 
     40 H10        23.0347   49.6917   12.3294 H         1 <0>         0.1150 
     41 H11        22.8489   53.6976   13.9751 H         1 <0>         0.1150 
     42 H12        24.7855   50.3875   10.8085 H         1 <0>         0.1150 
     43 H13        24.8295   54.2974   12.6112 H         1 <0>         0.1150 
     44 H14        20.6063   50.5437    8.9202 H         1 <0>         0.1359 
     45 H15        21.1478   51.5861   11.0551 H         1 <0>         0.1796 
     46 H16        18.9277   47.1840   10.9784 H         1 <0>         0.1699 
     47 H17        20.1134   43.6156   12.3036 H         1 <0>         0.0600 
     48 H18        18.4320   43.1845   11.9931 H         1 <0>         0.0600 
     49 H19        17.5840   47.3293   13.7030 H         1 <0>         0.0600 
     50 H20        18.4358   47.2870   15.2222 H         1 <0>         0.0600 
     51 H21        20.6635   42.3837   14.8920 H         1 <0>         0.0600 
     52 H22        19.5856   42.9704   16.1325 H         1 <0>         0.0600 
     53 H23        17.7916   43.0048   14.1530 H         1 <0>         0.0600 
     54 H24        18.0685   45.0207   15.1385 H         1 <0>         0.3000 
     55 H25        19.7556   40.6915   15.8220 H         1 <0>         0.4180 
@<TRIPOS>BOND
     1    1   11 1    
     2    1   31 1    
     3    1   32 1    
     4    1   33 1    
     5    2   14 1    
     6    2   34 1    
     7    2   35 1    
     8    2   36 1    
     9    3   29 1    
    10    3   37 1    
    11    3   38 1    
    12    3   39 1    
    13    4    6 ar   
    14    4   15 ar   
    15    4   40 1    
    16    5    7 ar   
    17    5   15 ar   
    18    5   41 1    
    19    6   16 ar   
    20    6   42 1    
    21    7   16 ar   
    22    7   43 1    
    23    8    9 ar   
    24    8   17 ar   
    25    8   44 1    
    26    9   18 ar   
    27    9   45 1    
    28   10   17 ar   
    29   10   19 ar   
    30   10   46 1    
    31   11   21 1    
    32   11   47 1    
    33   11   48 1    
    34   12   20 1    
    35   12   22 1    
    36   12   49 1    
    37   12   50 1    
    38   13   21 1    
    39   13   26 1    
    40   13   51 1    
    41   13   52 1    
    42   14   20 ar   
    43   14   25 ar   
    44   15   23 1    
    45   16   30 1    
    46   17   29 1    
    47   18   19 ar   
    48   18   25 ar   
    49   19   20 ar   
    50   21   24 1    
    51   21   53 1    
    52   22   24 am   BACKBONE|DICT|INTERRES
    53   22   27 2    
    54   23   25 1    
    55   23   28 2    
    56   24   54 1    
    57   26   55 1    
@<TRIPOS>SUBSTRUCTURE
     1 <0>         1 GROUP             0       ****    0 ROOT    
@<TRIPOS>MOLECULE
pgh1-ligand
55   57    1
SMALL
USER_CHARGES


@<TRIPOS>ATOM
      1 C1         17.0599   41.8839   14.3878 C.3       1 <0>        -0.1800 
      2 C2         20.3842   49.5413   16.1052 C.3       1 <0>        -0.0650 
      3 C3         19.3742   47.9856    7.7450 C.3       1 <0>         0.1100 
      4 C4         23.3653   50.7868   12.3489 C.ar      1 <0>        -0.1150 
      5 C5         23.2811   53.0609   13.2258 C.ar      1 <0>        -0.1150 
      6 C6         24.3853   51.1540   11.4755 C.ar      1 <0>        -0.1150 
      7 C7         24.4173   53.3754   12.4704 C.ar      1 <0>        -0.1150 
      8 C8         20.3307   49.5713    9.9615 C.ar      1 <0>        -0.0888 
      9 C9         20.7107   50.3204   11.0857 C.ar      1 <0>        -0.3541 
     10 C10        19.1978   48.0019   11.4233 C.ar      1 <0>        -0.2243 
     11 C11        17.3011   43.4236   14.3220 C.3       1 <0>        -0.1200 
     12 C12        18.3683   47.6430   14.5978 C.3       1 <0>        -0.0641 
     13 C13        19.3651   43.1835   12.8574 C.3       1 <0>         0.1450 
     14 C14        20.1670   49.4509   14.6169 C.ar      1 <0>        -0.0293 
     15 C15        22.7638   51.7536   13.1809 C.ar      1 <0>        -0.1150 
     16 C16        24.9596   52.4242   11.5897 C.ar      1 <0>         0.1800 
     17 C17        19.5862   48.3835   10.1246 C.ar      1 <0>         0.0267 
     18 C18        20.4244   49.8491   12.3875 C.ar      1 <0>         0.2860 
     19 C19        19.6002   48.7129   12.5720 C.ar      1 <0>         0.1233 
     20 C20        19.3309   48.5841   13.9663 C.ar      1 <0>        -0.1749 
     21 C21        18.7603   43.8749   14.1090 C.3       1 <0>         0.1400 
     22 C22        19.0913   46.3386   14.8522 C.2       1 <0>         0.5000 
     23 C23        21.6330   51.3696   14.0673 C.2       1 <0>         0.7375 
     24 N1         18.7855   45.3502   13.9911 N.am      1 <0>        -0.5000 
     25 N2         20.7857   50.2796   13.6695 N.pl3     1 <0>        -0.2434 
     26 O1         19.9835   41.9618   13.1977 O.3       1 <0>        -0.6830 
     27 O2         19.9008   46.2670   15.7740 O.2       1 <0>        -0.5000 
     28 O3         21.3878   51.9818   15.1059 O.2       1 <0>        -0.5000 
     29 O4         19.1597   47.5802    9.0906 O.3       1 <0>        -0.3000 
     30 Cl1        26.4387   52.7713   10.7907 Cl        1 <0>        -0.1800 
     31 H1         16.0868   41.6434   14.8162 H         1 <0>         0.0600 
     32 H2         17.8366   41.2887   14.8711 H         1 <0>         0.0600 
     33 H3         17.0522   41.4751   13.3822 H         1 <0>         0.0600 
     34 H4         19.9090   48.7231   16.6423 H         1 <0>         0.0600 
     35 H5         21.4471   49.4996   16.3437 H         1 <0>         0.0600 
     36 H6         19.9856   50.4654   16.5192 H         1 <0>         0.0600 
     37 H7         18.6991   47.4244    7.0994 H         1 <0>         0.0300 
     38 H8         19.1854   49.0420    7.5638 H         1 <0>         0.0300 
     39 H9         20.3856   47.7565    7.4282 H         1 <0>         0.0300 
     40 H10        23.0341   49.7592   12.3357 H         1 <0>         0.1150 
     41 H11        22.8576   53.8019   13.8905 H         1 <0>         0.1150 
     42 H12        24.7855   50.4177   10.8015 H         1 <0>         0.1150 
     43 H13        24.8729   54.3500   12.5692 H         1 <0>         0.1150 
     44 H14        20.6058   49.9311    8.9840 H         1 <0>         0.1359 
     45 H15        21.2635   51.2339   10.9328 H         1 <0>         0.1796 
     46 H16        18.5528   47.1542   11.5450 H         1 <0>         0.1699 
     47 H17        16.5991   43.7872   13.5904 H         1 <0>         0.0600 
     48 H18        16.9896   43.9845   15.1903 H         1 <0>         0.0600 
     49 H19        17.4978   47.4906   13.9572 H         1 <0>         0.0600 
     50 H20        17.9821   48.0358   15.5390 H         1 <0>         0.0600 
     51 H21        18.6016   42.9883   12.1044 H         1 <0>         0.0600 
     52 H22        20.1230   43.8085   12.3893 H         1 <0>         0.0600 
     53 H23        19.3001   43.5836   15.0106 H         1 <0>         0.0600 
     54 H24        18.2272   45.7000   13.2299 H         1 <0>         0.3000 
     55 H25        20.3500   41.5741   12.4161 H         1 <0>         0.4180 
@<TRIPOS>BOND
     1    1   11 1    
     2    1   31 1    
     3    1   32 1    
     4    1   33 1    
     5    2   14 1    
     6    2   34 1    
     7    2   35 1    
     8    2   36 1    
     9    3   29 1    
    10    3   37 1    
    11    3   38 1    
    12    3   39 1    
    13    4    6 ar   
    14    4   15 ar   
    15    4   40 1    
    16    5    7 ar   
    17    5   15 ar   
    18    5   41 1    
    19    6   16 ar   
    20    6   42 1    
    21    7   16 ar   
    22    7   43 1    
    23    8    9 ar   
    24    8   17 ar   
    25    8   44 1    
    26    9   18 ar   
    27    9   45 1    
    28   10   17 ar   
    29   10   19 ar   
    30   10   46 1    
    31   11   21 1    
    32   11   47 1    
    33   11   48 1    
    34   12   20 1    
    35   12   22 1    
    36   12   49 1    
    37   12   50 1    
    38   13   21 1    
    39   13   26 1    
    40   13   51 1    
    41   13   52 1    
    42   14   20 ar   
    43   14   25 ar   
    44   15   23 1    
    45   16   30 1    
    46   17   29 1    
    47   18   19 ar   
    48   18   25 ar   
    49   19   20 ar   
    50   21   24 1    
    51   21   53 1    
    52   22   24 am   BACKBONE|DICT|INTERRES
    53   22   27 2    
    54   23   25 1    
    55   23   28 2    
    56   24   54 1    
    57   26   55 1    
@<TRIPOS>SUBSTRUCTURE
     1 <0>         1 GROUP             0       ****    0 ROOT    
@<TRIPOS>MOLECULE
pgh1-ligand
55   57    1
SMALL
USER_CHARGES


@<TRIPOS>ATOM
      1 C1         15.3061   44.3225   14.1747 C.3       1 <0>        -0.1800 
      2 C2         20.9179   50.3016   16.1418 C.3       1 <0>        -0.0650 
      3 C3         19.3737   47.8334    8.0529 C.3       1 <0>         0.1100 
      4 C4         23.2936   51.3532   11.9763 C.ar      1 <0>        -0.1150 
      5 C5         23.6414   53.4351   13.1937 C.ar      1 <0>        -0.1150 
      6 C6         24.4511   51.5855   11.2448 C.ar      1 <0>        -0.1150 
      7 C7         24.8880   53.5841   12.5817 C.ar      1 <0>        -0.1150 
      8 C8         19.9855   49.8188   10.0887 C.ar      1 <0>        -0.0888 
      9 C9         20.3781   50.6851   11.1200 C.ar      1 <0>        -0.3541 
     10 C10        19.6439   48.0560   11.7299 C.ar      1 <0>        -0.2243 
     11 C11        16.3120   45.2538   14.8119 C.3       1 <0>        -0.1200 
     12 C12        20.2526   47.5046   14.9966 C.3       1 <0>        -0.0641 
     13 C13        18.0803   43.5129   13.8681 C.3       1 <0>         0.1450 
     14 C14        20.6832   49.9597   14.6951 C.ar      1 <0>        -0.0293 
     15 C15        22.8570   52.2919   12.9393 C.ar      1 <0>        -0.1150 
     16 C16        25.2654   52.6661   11.5906 C.ar      1 <0>         0.1800 
     17 C17        19.6126   48.4902   10.3849 C.ar      1 <0>         0.0267 
     18 C18        20.4584   50.2176   12.4462 C.ar      1 <0>         0.2860 
     19 C19        20.0695   48.8995   12.7859 C.ar      1 <0>         0.1233 
     20 C20        20.2826   48.7514   14.1995 C.ar      1 <0>        -0.1749 
     21 C21        17.7648   44.7251   14.7902 C.3       1 <0>         0.1400 
     22 C22        18.8714   46.9338   15.1873 C.2       1 <0>         0.5000 
     23 C23        21.6568   52.0375   13.7884 C.2       1 <0>         0.7375 
     24 N1         18.6933   45.8011   14.5026 N.am      1 <0>        -0.5000 
     25 N2         20.9448   50.8039   13.6141 N.pl3     1 <0>        -0.2434 
     26 O1         19.1855   42.7757   14.3325 O.3       1 <0>        -0.6830 
     27 O2         18.0799   47.4335   15.9821 O.2       1 <0>        -0.5000 
     28 O3         21.3594   52.7840   14.7162 O.2       1 <0>        -0.5000 
     29 O4         19.1865   47.5831    9.4434 O.3       1 <0>        -0.3000 
     30 Cl1        26.7855   52.7844   10.7906 Cl        1 <0>        -0.1800 
     31 H1         14.3521   44.7964   14.0428 H         1 <0>         0.0600 
     32 H2         15.1859   43.4257   14.7807 H         1 <0>         0.0600 
     33 H3         15.5861   43.9846   13.1897 H         1 <0>         0.0600 
     34 H4         20.3919   49.6025   16.7907 H         1 <0>         0.0600 
     35 H5         21.9805   50.3007   16.3919 H         1 <0>         0.0600 
     36 H6         20.4969   51.2725   16.4006 H         1 <0>         0.0600 
     37 H7         18.7042   47.1876    7.4885 H         1 <0>         0.0300 
     38 H8         19.1854   48.8468    7.7150 H         1 <0>         0.0300 
     39 H9         20.3851   47.5876    7.7576 H         1 <0>         0.0300 
     40 H10        22.8056   50.4179   11.7772 H         1 <0>         0.1150 
     41 H11        23.3414   54.1615   13.9340 H         1 <0>         0.1150 
     42 H12        24.7764   50.8741   10.4996 H         1 <0>         0.1150 
     43 H13        25.5238   54.4214   12.8304 H         1 <0>         0.1150 
     44 H14        19.9836   50.2107    9.0836 H         1 <0>         0.1359 
     45 H15        20.6725   51.6939   10.8808 H         1 <0>         0.1796 
     46 H16        19.3397   47.0451   11.9460 H         1 <0>         0.1699 
     47 H17        16.2498   46.2507   14.3900 H         1 <0>         0.0600 
     48 H18        15.9855   45.4200   15.8361 H         1 <0>         0.0600 
     49 H19        20.7307   47.6026   15.9750 H         1 <0>         0.0600 
     50 H20        20.8335   46.7817   14.4431 H         1 <0>         0.0600 
     51 H21        17.2784   42.7789   13.8720 H         1 <0>         0.0600 
     52 H22        18.2689   43.7918   12.8337 H         1 <0>         0.0600 
     53 H23        17.9850   44.3850   15.7714 H         1 <0>         0.0600 
     54 H24        19.3767   45.5959   13.7957 H         1 <0>         0.3000 
     55 H25        19.2720   41.9895   13.8141 H         1 <0>         0.4180 
@<TRIPOS>BOND
     1    1   11 1    
     2    1   31 1    
     3    1   32 1    
     4    1   33 1    
     5    2   14 1    
     6    2   34 1    
     7    2   35 1    
     8    2   36 1    
     9    3   29 1    
    10    3   37 1    
    11    3   38 1    
    12    3   39 1    
    13    4    6 ar   
    14    4   15 ar   
    15    4   40 1    
    16    5    7 ar   
    17    5   15 ar   
    18    5   41 1    
    19    6   16 ar   
    20    6   42 1    
    21    7   16 ar   
    22    7   43 1    
    23    8    9 ar   
    24    8   17 ar   
    25    8   44 1    
    26    9   18 ar   
    27    9   45 1    
    28   10   17 ar   
    29   10   19 ar   
    30   10   46 1    
    31   11   21 1    
    32   11   47 1    
    33   11   48 1    
    34   12   20 1    
    35   12   22 1    
    36   12   49 1    
    37   12   50 1    
    38   13   21 1    
    39   13   26 1    
    40   13   51 1    
    41   13   52 1    
    42   14   20 ar   
    43   14   25 ar   
    44   15   23 1    
    45   16   30 1    
    46   17   29 1    
    47   18   19 ar   
    48   18   25 ar   
    49   19   20 ar   
    50   21   24 1    
    51   21   53 1    
    52   22   24 am   BACKBONE|DICT|INTERRES
    53   22   27 2    
    54   23   25 1    
    55   23   28 2    
    56   24   54 1    
    57   26   55 1    
@<TRIPOS>SUBSTRUCTURE
     1 <0>         1 GROUP             0       ****    0 ROOT    
