@<TRIPOS>MOLECULE
pgh2-ligand
40   42    1
SMALL
USER_CHARGES


@<TRIPOS>ATOM
      1 C1         32.0498  -24.9056  -11.4440 C.3       1 <0>        -0.0650 
      2 C2         32.9587  -24.7943  -13.8034 C.ar      1 <0>        -0.1150 
      3 C3         31.4010  -23.0719  -13.0729 C.ar      1 <0>        -0.1150 
      4 C4         33.0719  -24.1565  -15.0535 C.ar      1 <0>        -0.1150 
      5 C5         31.5289  -22.4310  -14.3208 C.ar      1 <0>        -0.1150 
      6 C6         29.4633  -22.6784  -16.6848 C.ar      1 <0>        -0.1150 
      7 C7         29.5004  -20.5123  -17.8080 C.ar      1 <0>        -0.1150 
      8 C8         28.0582  -22.6057  -16.6080 C.ar      1 <0>        -0.1150 
      9 C9         28.0937  -20.4389  -17.7418 C.ar      1 <0>        -0.1150 
     10 C10        33.8104  -22.0308  -17.1782 C.ar      1 <0>        -0.3200 
     11 C11        32.1290  -24.2480  -12.8054 C.ar      1 <0>        -0.1150 
     12 C12        32.3656  -22.9645  -15.3271 C.ar      1 <0>         0.0629 
     13 C13        30.2010  -21.6308  -17.2856 C.ar      1 <0>         0.0731 
     14 C14        27.3757  -21.4945  -17.1422 C.ar      1 <0>         0.1567 
     15 C15        32.5968  -22.2705  -16.5965 C.ar      1 <0>         0.1081 
     16 C16        33.5053  -21.3123  -18.3613 C.ar      1 <0>         0.2230 
     17 C17        34.4636  -20.7956  -19.4031 C.3       1 <0>         0.7150 
     18 N1         25.1416  -22.0308  -18.6130 N.pl3     1 <0>        -0.7678 
     19 N2         32.2032  -21.1074  -18.4823 N.2       1 <0>        -0.5310 
     20 N3         31.6187  -21.6948  -17.4080 N.pl3     1 <0>         0.1189 
     21 O1         25.0878  -22.4308  -16.1206 O.2       1 <0>        -0.4680 
     22 O2         25.1693  -20.0321  -17.0080 O.2       1 <0>        -0.4680 
     23 F1         34.4624  -19.4639  -19.4080 F         1 <0>        -0.2000 
     24 F2         35.7016  -21.2185  -19.1445 F         1 <0>        -0.2000 
     25 F3         34.1079  -21.2308  -20.6080 F         1 <0>        -0.2000 
     26 S1         25.5858  -21.4421  -17.0810 S.o2      1 <0>         0.8327 
     27 H1         31.2936  -24.4308  -10.8174 H         1 <0>         0.0600 
     28 H2         33.0090  -24.8299  -10.9321 H         1 <0>         0.0600 
     29 H3         31.8013  -25.9617  -11.5469 H         1 <0>         0.0600 
     30 H4         33.5266  -25.6925  -13.6083 H         1 <0>         0.1150 
     31 H5         30.7687  -22.6386  -12.3108 H         1 <0>         0.1150 
     32 H6         33.7294  -24.5766  -15.8007 H         1 <0>         0.1150 
     33 H7         31.0010  -21.5070  -14.4936 H         1 <0>         0.1150 
     34 H8         29.9579  -23.5634  -16.3143 H         1 <0>         0.1150 
     35 H9         30.0449  -19.6943  -18.2507 H         1 <0>         0.1150 
     36 H10        27.4991  -23.4291  -16.1894 H         1 <0>         0.1150 
     37 H11        27.5717  -19.5907  -18.1560 H         1 <0>         0.1150 
     38 H12        34.7809  -22.3299  -16.8108 H         1 <0>         0.1500 
     39 H13        24.3257  -22.6484  -18.6080 H         1 <0>         0.3572 
     40 H14        25.1849  -21.3517  -19.3702 H         1 <0>         0.3572 
@<TRIPOS>BOND
     1    1   11 1    
     2    1   27 1    
     3    1   28 1    
     4    1   29 1    
     5    2    4 ar   
     6    2   11 ar   
     7    2   30 1    
     8    3    5 ar   
     9    3   11 ar   
    10    3   31 1    
    11    4   12 ar   
    12    4   32 1    
    13    5   12 ar   
    14    5   33 1    
    15    6    8 ar   
    16    6   13 ar   
    17    6   34 1    
    18    7    9 ar   
    19    7   13 ar   
    20    7   35 1    
    21    8   14 ar   
    22    8   36 1    
    23    9   14 ar   
    24    9   37 1    
    25   10   15 ar   
    26   10   16 ar   
    27   10   38 1    
    28   12   15 1    
    29   13   20 1    
    30   14   26 1    
    31   15   20 ar   
    32   16   17 1    
    33   16   19 ar   
    34   17   23 1    
    35   17   24 1    
    36   17   25 1    
    37   18   26 1    
    38   18   39 1    
    39   18   40 1    
    40   19   20 ar   
    41   21   26 2    
    42   22   26 2    
@<TRIPOS>SUBSTRUCTURE
     1 <0>         1 GROUP             0       ****    0 ROOT    
