@<TRIPOS>MOLECULE
plk1-ligand
57   61    1
SMALL
USER_CHARGES


@<TRIPOS>ATOM
      1 C1          2.0259   17.0806   70.9836 C.3       1 <0>         0.0900 
      2 C2         -2.2893   24.8601   62.4485 C.2       1 <0>        -0.0738 
      3 C3         -2.3941   25.9370   63.3744 C.2       1 <0>        -0.0738 
      4 C4         -1.8149   22.7082   69.0001 C.ar      1 <0>        -0.1150 
      5 C5          0.0871   23.2264   70.4188 C.ar      1 <0>        -0.1150 
      6 C6         -1.9633   21.4752   69.6568 C.ar      1 <0>        -0.1150 
      7 C7         -0.0898   22.0072   71.1000 C.ar      1 <0>        -0.1150 
      8 C8         -1.4905   25.1588   61.3749 C.2       1 <0>        -0.3255 
      9 C9         -0.2194   27.4700   66.2176 C.ar      1 <0>        -0.1630 
     10 C10         1.4015   29.0269   65.9622 C.ar      1 <0>        -0.1630 
     11 C11         0.8664   18.8797   72.2124 C.3       1 <0>         0.1500 
     12 C12        -0.0372   18.0545   70.0733 C.3       1 <0>         0.1500 
     13 C13        -0.5080   19.5048   72.5334 C.3       1 <0>         0.0900 
     14 C14        -1.4057   18.6681   70.4195 C.3       1 <0>         0.0900 
     15 C15        -1.6726   28.3801   63.6736 C.3       1 <0>        -0.0050 
     16 C16        -0.7609   23.5749   69.3431 C.ar      1 <0>        -0.1150 
     17 C17        -1.0893   21.0855   70.6971 C.ar      1 <0>         0.2100 
     18 C18        -1.6856   27.0485   62.9935 C.2       1 <0>        -0.1787 
     19 C19         0.6730   27.5004   67.2528 C.ar      1 <0>        -0.1544 
     20 C20         1.6146   28.4174   67.1375 C.ar      1 <0>         0.0934 
     21 C21         0.8750   26.8170   68.4801 C.ar      1 <0>         0.4230 
     22 C22        -0.2859   28.8709   64.0934 C.2       1 <0>         0.6225 
     23 C23        -0.4731   24.7641   68.4749 C.2       1 <0>         0.6150 
     24 N1          2.4033   28.3649   68.2539 N.pl3     1 <0>        -0.1490 
     25 N2          1.9629   27.3431   69.0685 N.2       1 <0>        -0.5310 
     26 N3          0.1402   25.7815   69.0900 N.am      1 <0>        -0.3850 
     27 N4          0.2715   28.4692   65.3559 N.pl3     1 <0>        -0.0445 
     28 N5          0.7276   17.7164   71.2972 N.4       1 <0>        -0.1000 
     29 N6         -1.2448   19.8189   71.3098 N.pl3     1 <0>        -0.6300 
     30 O1          0.3480   29.6682   63.4011 O.2       1 <0>        -0.5000 
     31 O2         -0.8278   24.7640   67.2976 O.2       1 <0>        -0.5000 
     32 S1         -0.8354   26.7649   61.4976 S.3       1 <0>         0.0328 
     33 H1          2.6971   17.7748   70.4764 H         1 <0>         0.0600 
     34 H2          2.5095   16.7424   71.8973 H         1 <0>         0.0600 
     35 H3          1.8883   16.2097   70.3413 H         1 <0>         0.0600 
     36 H4         -2.7983   23.9200   62.6017 H         1 <0>         0.1211 
     37 H5         -3.0018   25.8677   64.2650 H         1 <0>         0.1211 
     38 H6         -2.4729   22.9472   68.1766 H         1 <0>         0.1150 
     39 H7          0.9121   23.8622   70.7083 H         1 <0>         0.1150 
     40 H8         -2.7628   20.8263   69.3353 H         1 <0>         0.1150 
     41 H9          0.6005   21.7825   71.8979 H         1 <0>         0.1150 
     42 H10        -1.2410   24.5360   60.5276 H         1 <0>         0.2618 
     43 H11        -1.0930   26.8700   66.0156 H         1 <0>         0.1550 
     44 H12         1.9552   29.8311   65.5003 H         1 <0>         0.1550 
     45 H13         1.3502   18.5640   73.1372 H         1 <0>         0.0600 
     46 H14         1.5214   19.6215   71.7524 H         1 <0>         0.0600 
     47 H15        -0.1710   17.1678   69.4520 H         1 <0>         0.0600 
     48 H16         0.5499   18.7645   69.4974 H         1 <0>         0.0600 
     49 H17        -0.4071   20.3793   73.1767 H         1 <0>         0.0600 
     50 H18        -1.1035   18.7942   73.1079 H         1 <0>         0.0600 
     51 H19        -2.0267   17.9279   70.9258 H         1 <0>         0.0600 
     52 H20        -1.9302   18.9132   69.4971 H         1 <0>         0.0600 
     53 H21        -2.1303   29.1278   63.0257 H         1 <0>         0.0600 
     54 H22        -2.2889   28.3337   64.5632 H         1 <0>         0.0600 
     55 H23         3.1996   28.9666   68.4725 H         1 <0>         0.3410 
     56 H24         0.3257   25.6576   70.0757 H         1 <0>         0.3000 
     57 H25         0.1732   17.0294   71.7888 H         1 <0>         0.2900 
@<TRIPOS>BOND
     1    1   28 1    
     2    1   33 1    
     3    1   34 1    
     4    1   35 1    
     5    2    3 1    
     6    2    8 2    
     7    2   36 1    
     8    3   18 2    
     9    3   37 1    
    10    4    6 ar   
    11    4   16 ar   
    12    4   38 1    
    13    5    7 ar   
    14    5   16 ar   
    15    5   39 1    
    16    6   17 ar   
    17    6   40 1    
    18    7   17 ar   
    19    7   41 1    
    20    8   32 1    
    21    8   42 1    
    22    9   19 ar   
    23    9   27 ar   
    24    9   43 1    
    25   10   20 ar   
    26   10   27 ar   
    27   10   44 1    
    28   11   13 1    
    29   11   28 1    
    30   11   45 1    
    31   11   46 1    
    32   12   14 1    
    33   12   28 1    
    34   12   47 1    
    35   12   48 1    
    36   13   29 1    
    37   13   49 1    
    38   13   50 1    
    39   14   29 1    
    40   14   51 1    
    41   14   52 1    
    42   15   18 1    
    43   15   22 1    
    44   15   53 1    
    45   15   54 1    
    46   16   23 1    
    47   17   29 1    
    48   18   32 1    
    49   19   20 ar   
    50   19   21 ar   
    51   20   24 ar   
    52   21   25 ar   
    53   21   26 1    
    54   22   27 1    
    55   22   30 2    
    56   23   26 am   BACKBONE|DICT|INTERRES
    57   23   31 2    
    58   24   25 ar   
    59   24   55 1    
    60   26   56 1    
    61   28   57 1    
@<TRIPOS>SUBSTRUCTURE
     1 <0>         1 GROUP             0       ****    0 ROOT    
@<TRIPOS>MOLECULE
plk1-ligand
57   61    1
SMALL
USER_CHARGES


@<TRIPOS>ATOM
      1 C1         -0.2996   15.8016   73.3132 C.3       1 <0>         0.0900 
      2 C2         -1.3337   25.6916   61.0579 C.2       1 <0>        -0.0738 
      3 C3         -1.2480   26.9839   61.6503 C.2       1 <0>        -0.0738 
      4 C4         -1.4907   22.3962   69.1716 C.ar      1 <0>        -0.1150 
      5 C5          0.1882   23.2513   70.7020 C.ar      1 <0>        -0.1150 
      6 C6         -1.5338   21.1910   69.8975 C.ar      1 <0>        -0.1150 
      7 C7          0.1107   22.0637   71.4550 C.ar      1 <0>        -0.1150 
      8 C8         -1.8896   24.7671   61.9006 C.2       1 <0>        -0.3255 
      9 C9         -0.2908   27.3239   66.2945 C.ar      1 <0>        -0.1630 
     10 C10         1.2111   28.9989   66.0375 C.ar      1 <0>        -0.1630 
     11 C11        -1.7055   17.6542   72.4968 C.3       1 <0>         0.1500 
     12 C12         0.7222   17.9627   72.7067 C.3       1 <0>         0.1500 
     13 C13        -1.7697   18.8285   71.5060 C.3       1 <0>         0.0900 
     14 C14         0.6574   19.1531   71.7350 C.3       1 <0>         0.0900 
     15 C15        -1.8806   28.2178   63.8143 C.3       1 <0>        -0.0050 
     16 C16        -0.5958   23.4246   69.5344 C.ar      1 <0>        -0.1150 
     17 C17        -0.7122   20.9950   71.0352 C.ar      1 <0>         0.2100 
     18 C18        -1.7481   27.0286   62.9250 C.2       1 <0>        -0.1787 
     19 C19         0.6210   27.3961   67.3096 C.ar      1 <0>        -0.1544 
     20 C20         1.4945   28.3794   67.1915 C.ar      1 <0>         0.0934 
     21 C21         0.8859   26.7186   68.5276 C.ar      1 <0>         0.4230 
     22 C22        -0.5300   28.8037   64.2296 C.2       1 <0>         0.6225 
     23 C23        -0.3964   24.6032   68.6147 C.2       1 <0>         0.6150 
     24 N1          2.3113   28.3646   68.2877 N.pl3     1 <0>        -0.1490 
     25 N2          1.9541   27.3047   69.0963 N.2       1 <0>        -0.5310 
     26 N3          0.2159   25.6568   69.1681 N.am      1 <0>        -0.3850 
     27 N4          0.0998   28.3855   65.4526 N.pl3     1 <0>        -0.0445 
     28 N5         -0.3759   16.9988   72.4477 N.4       1 <0>        -0.1000 
     29 N6         -0.6719   19.7667   71.7272 N.pl3     1 <0>        -0.6300 
     30 O1          0.0219   29.6763   63.5566 O.2       1 <0>        -0.5000 
     31 O2         -0.8041   24.5654   67.4550 O.2       1 <0>        -0.5000 
     32 S1         -2.3136   25.4609   63.4376 S.3       1 <0>         0.0328 
     33 H1         -0.4251   16.0686   74.3634 H         1 <0>         0.0600 
     34 H2         -1.0766   15.0833   73.0506 H         1 <0>         0.0600 
     35 H3          0.6628   15.3010   73.1978 H         1 <0>         0.0600 
     36 H4         -0.9879   25.4852   60.0548 H         1 <0>         0.1211 
     37 H5         -0.8372   27.8357   61.1351 H         1 <0>         0.1211 
     38 H6         -2.0950   22.4879   68.2802 H         1 <0>         0.1150 
     39 H7          0.8964   24.0001   71.0223 H         1 <0>         0.1150 
     40 H8         -2.1834   20.4126   69.5281 H         1 <0>         0.1150 
     41 H9          0.7310   21.9631   72.3337 H         1 <0>         0.1150 
     42 H10        -2.0523   23.7160   61.7303 H         1 <0>         0.2618 
     43 H11        -1.1278   26.6690   66.1058 H         1 <0>         0.1550 
     44 H12         1.6936   29.8522   65.5831 H         1 <0>         0.1550 
     45 H13        -2.4862   16.9311   72.2575 H         1 <0>         0.0600 
     46 H14        -1.8992   18.0119   73.5100 H         1 <0>         0.0600 
     47 H15         1.6866   17.4639   72.6071 H         1 <0>         0.0600 
     48 H16         0.6542   18.3232   73.7348 H         1 <0>         0.0600 
     49 H17        -2.7247   19.3443   71.6088 H         1 <0>         0.0600 
     50 H18        -1.7178   18.4443   70.4855 H         1 <0>         0.0600 
     51 H19         0.8932   18.8181   70.7235 H         1 <0>         0.0600 
     52 H20         1.4289   19.8728   72.0086 H         1 <0>         0.0600 
     53 H21        -2.4533   28.9932   63.3050 H         1 <0>         0.0600 
     54 H22        -2.4534   27.9534   64.6972 H         1 <0>         0.0600 
     55 H23         3.0933   28.9919   68.4830 H         1 <0>         0.3410 
     56 H24         0.4446   25.5626   70.1481 H         1 <0>         0.3000 
     57 H25        -0.2538   16.6816   71.4961 H         1 <0>         0.2900 
@<TRIPOS>BOND
     1    1   28 1    
     2    1   33 1    
     3    1   34 1    
     4    1   35 1    
     5    2    3 1    
     6    2    8 2    
     7    2   36 1    
     8    3   18 2    
     9    3   37 1    
    10    4    6 ar   
    11    4   16 ar   
    12    4   38 1    
    13    5    7 ar   
    14    5   16 ar   
    15    5   39 1    
    16    6   17 ar   
    17    6   40 1    
    18    7   17 ar   
    19    7   41 1    
    20    8   32 1    
    21    8   42 1    
    22    9   19 ar   
    23    9   27 ar   
    24    9   43 1    
    25   10   20 ar   
    26   10   27 ar   
    27   10   44 1    
    28   11   13 1    
    29   11   28 1    
    30   11   45 1    
    31   11   46 1    
    32   12   14 1    
    33   12   28 1    
    34   12   47 1    
    35   12   48 1    
    36   13   29 1    
    37   13   49 1    
    38   13   50 1    
    39   14   29 1    
    40   14   51 1    
    41   14   52 1    
    42   15   18 1    
    43   15   22 1    
    44   15   53 1    
    45   15   54 1    
    46   16   23 1    
    47   17   29 1    
    48   18   32 1    
    49   19   20 ar   
    50   19   21 ar   
    51   20   24 ar   
    52   21   25 ar   
    53   21   26 1    
    54   22   27 1    
    55   22   30 2    
    56   23   26 am   BACKBONE|DICT|INTERRES
    57   23   31 2    
    58   24   25 ar   
    59   24   55 1    
    60   26   56 1    
    61   28   57 1    
@<TRIPOS>SUBSTRUCTURE
     1 <0>         1 GROUP             0       ****    0 ROOT    
@<TRIPOS>MOLECULE
plk1-ligand
57   61    1
SMALL
USER_CHARGES


@<TRIPOS>ATOM
      1 C1          0.0919   16.0926   69.6944 C.3       1 <0>         0.0900 
      2 C2         -3.4397   27.9699   60.2702 C.2       1 <0>        -0.0738 
      3 C3         -2.4539   27.3594   61.0973 C.2       1 <0>        -0.0738 
      4 C4         -1.4893   22.3647   69.2641 C.ar      1 <0>        -0.1150 
      5 C5          0.2571   23.1925   70.7364 C.ar      1 <0>        -0.1150 
      6 C6         -1.5403   21.1648   69.9959 C.ar      1 <0>        -0.1150 
      7 C7          0.1678   22.0108   71.4972 C.ar      1 <0>        -0.1150 
      8 C8         -4.4353   28.5723   60.9869 C.2       1 <0>        -0.3255 
      9 C9         -0.3899   26.9644   66.1644 C.ar      1 <0>        -0.1630 
     10 C10         0.9205   28.7536   65.7228 C.ar      1 <0>        -0.1630 
     11 C11         0.9190   18.1141   70.8401 C.3       1 <0>         0.1500 
     12 C12        -1.5012   17.7658   70.5523 C.3       1 <0>         0.1500 
     13 C13         0.6419   19.1074   71.9852 C.3       1 <0>         0.0900 
     14 C14        -1.7743   18.7906   71.6744 C.3       1 <0>         0.0900 
     15 C15        -1.8683   27.0876   63.5832 C.3       1 <0>        -0.0050 
     16 C16        -0.5490   23.3657   69.5880 C.ar      1 <0>        -0.1150 
     17 C17        -0.6896   20.9557   71.1080 C.ar      1 <0>         0.2100 
     18 C18        -2.6995   27.5367   62.4330 C.2       1 <0>        -0.1787 
     19 C19         0.5113   27.2294   67.1507 C.ar      1 <0>        -0.1544 
     20 C20         1.2814   28.2787   66.9267 C.ar      1 <0>         0.0934 
     21 C21         0.8489   26.6774   68.4092 C.ar      1 <0>         0.4230 
     22 C22        -0.7685   28.0962   63.9483 C.2       1 <0>         0.6225 
     23 C23        -0.3177   24.4953   68.6223 C.2       1 <0>         0.6150 
     24 N1          2.1107   28.4329   68.0059 N.pl3     1 <0>        -0.1490 
     25 N2          1.8556   27.4181   68.9081 N.2       1 <0>        -0.5310 
     26 N3          0.2848   25.5886   69.1164 N.am      1 <0>        -0.3850 
     27 N4         -0.1092   27.9552   65.2122 N.pl3     1 <0>        -0.0445 
     28 N5         -0.1759   17.1191   70.7253 N.4       1 <0>        -0.1000 
     29 N6         -0.6686   19.7365   71.8205 N.pl3     1 <0>        -0.6300 
     30 O1         -0.4106   29.0074   63.1985 O.2       1 <0>        -0.5000 
     31 O2         -0.6892   24.3660   67.4583 O.2       1 <0>        -0.5000 
     32 S1         -4.1871   28.4054   62.6975 S.3       1 <0>         0.0328 
     33 H1          0.1021   16.5311   68.6980 H         1 <0>         0.0600 
     34 H2          1.0546   15.6103   69.8629 H         1 <0>         0.0600 
     35 H3         -0.6751   15.3178   69.7136 H         1 <0>         0.0600 
     36 H4         -3.3852   27.9624   59.1914 H         1 <0>         0.1211 
     37 H5         -1.5990   26.8389   60.6920 H         1 <0>         0.1211 
     38 H6         -2.1132   22.4634   68.3866 H         1 <0>         0.1150 
     39 H7          0.9870   23.9351   71.0257 H         1 <0>         0.1150 
     40 H8         -2.2264   20.4061   69.6550 H         1 <0>         0.1150 
     41 H9          0.8039   21.9072   72.3644 H         1 <0>         0.1150 
     42 H10        -5.2826   29.1419   60.6235 H         1 <0>         0.2618 
     43 H11        -1.1527   26.2122   66.0463 H         1 <0>         0.1550 
     44 H12         1.3095   29.5971   65.1707 H         1 <0>         0.1550 
     45 H13         1.8698   17.6078   71.0127 H         1 <0>         0.0600 
     46 H14         1.0104   18.6507   69.8953 H         1 <0>         0.0600 
     47 H15        -2.2843   17.0066   70.5512 H         1 <0>         0.0600 
     48 H16        -1.5339   18.2507   69.5757 H         1 <0>         0.0600 
     49 H17         1.4493   19.8383   72.0312 H         1 <0>         0.0600 
     50 H18         0.6540   18.5856   72.9432 H         1 <0>         0.0600 
     51 H19        -1.8913   18.2675   72.6243 H         1 <0>         0.0600 
     52 H20        -2.7185   19.3094   71.5077 H         1 <0>         0.0600 
     53 H21        -2.5204   26.9338   64.4427 H         1 <0>         0.0600 
     54 H22        -1.4044   26.1266   63.3599 H         1 <0>         0.0600 
     55 H23         2.8290   29.1381   68.1495 H         1 <0>         0.3410 
     56 H24         0.5120   25.5644   70.1009 H         1 <0>         0.3000 
     57 H25        -0.2098   16.6377   71.6123 H         1 <0>         0.2900 
@<TRIPOS>BOND
     1    1   28 1    
     2    1   33 1    
     3    1   34 1    
     4    1   35 1    
     5    2    3 1    
     6    2    8 2    
     7    2   36 1    
     8    3   18 2    
     9    3   37 1    
    10    4    6 ar   
    11    4   16 ar   
    12    4   38 1    
    13    5    7 ar   
    14    5   16 ar   
    15    5   39 1    
    16    6   17 ar   
    17    6   40 1    
    18    7   17 ar   
    19    7   41 1    
    20    8   32 1    
    21    8   42 1    
    22    9   19 ar   
    23    9   27 ar   
    24    9   43 1    
    25   10   20 ar   
    26   10   27 ar   
    27   10   44 1    
    28   11   13 1    
    29   11   28 1    
    30   11   45 1    
    31   11   46 1    
    32   12   14 1    
    33   12   28 1    
    34   12   47 1    
    35   12   48 1    
    36   13   29 1    
    37   13   49 1    
    38   13   50 1    
    39   14   29 1    
    40   14   51 1    
    41   14   52 1    
    42   15   18 1    
    43   15   22 1    
    44   15   53 1    
    45   15   54 1    
    46   16   23 1    
    47   17   29 1    
    48   18   32 1    
    49   19   20 ar   
    50   19   21 ar   
    51   20   24 ar   
    52   21   25 ar   
    53   21   26 1    
    54   22   27 1    
    55   22   30 2    
    56   23   26 am   BACKBONE|DICT|INTERRES
    57   23   31 2    
    58   24   25 ar   
    59   24   55 1    
    60   26   56 1    
    61   28   57 1    
@<TRIPOS>SUBSTRUCTURE
     1 <0>         1 GROUP             0       ****    0 ROOT    
@<TRIPOS>MOLECULE
plk1-ligand
57   61    1
SMALL
USER_CHARGES


@<TRIPOS>ATOM
      1 C1          0.5921   16.1665   70.0666 C.3       1 <0>         0.0900 
      2 C2         -4.2898   28.5703   61.2020 C.2       1 <0>        -0.0738 
      3 C3         -3.8879   28.3641   62.5515 C.2       1 <0>        -0.0738 
      4 C4         -1.4225   22.2027   69.4975 C.ar      1 <0>        -0.1150 
      5 C5          0.2396   23.1266   71.0064 C.ar      1 <0>        -0.1150 
      6 C6         -1.4859   21.0303   70.2746 C.ar      1 <0>        -0.1150 
      7 C7          0.1624   21.9601   71.7913 C.ar      1 <0>        -0.1150 
      8 C8         -3.4606   27.9648   60.2988 C.2       1 <0>        -0.3255 
      9 C9         -0.4487   26.8952   66.4075 C.ar      1 <0>        -0.1630 
     10 C10         0.8765   28.6750   65.9647 C.ar      1 <0>        -0.1630 
     11 C11         1.1491   18.1927   71.3551 C.3       1 <0>         0.1500 
     12 C12        -1.2044   17.6739   70.8234 C.3       1 <0>         0.1500 
     13 C13         0.6784   19.1296   72.4830 C.3       1 <0>         0.0900 
     14 C14        -1.6541   18.6515   71.9322 C.3       1 <0>         0.0900 
     15 C15        -2.0507   27.1731   63.9016 C.3       1 <0>        -0.0050 
     16 C16        -0.5364   23.2505   69.8319 C.ar      1 <0>        -0.1150 
     17 C17        -0.6667   20.8738   71.4201 C.ar      1 <0>         0.2100 
     18 C18        -2.7683   27.5800   62.6598 C.2       1 <0>        -0.1787 
     19 C19         0.4803   27.1307   67.3786 C.ar      1 <0>        -0.1544 
     20 C20         1.2565   28.1764   67.1508 C.ar      1 <0>         0.0934 
     21 C21         0.8396   26.5633   68.6274 C.ar      1 <0>         0.4230 
     22 C22        -0.8748   28.1027   64.2333 C.2       1 <0>         0.6225 
     23 C23        -0.3492   24.3993   68.8742 C.2       1 <0>         0.6150 
     24 N1          2.1106   28.3147   68.2091 N.pl3     1 <0>        -0.1490 
     25 N2          1.8777   27.2792   69.0967 N.2       1 <0>        -0.5310 
     26 N3          0.2743   25.4861   69.3570 N.am      1 <0>        -0.3850 
     27 N4         -0.1790   27.9047   65.4692 N.pl3     1 <0>        -0.0445 
     28 N5          0.1486   17.1255   71.1013 N.4       1 <0>        -0.1000 
     29 N6         -0.6433   19.6796   72.1778 N.pl3     1 <0>        -0.6300 
     30 O1         -0.4979   29.0110   63.4886 O.2       1 <0>        -0.5000 
     31 O2         -0.7819   24.3053   67.7283 O.2       1 <0>        -0.5000 
     32 S1         -2.2118   27.0506   61.0971 S.3       1 <0>         0.0328 
     33 H1          0.6751   16.6552   69.0972 H         1 <0>         0.0600 
     34 H2          1.5641   15.7397   70.3180 H         1 <0>         0.0600 
     35 H3         -0.1180   15.3433   69.9711 H         1 <0>         0.0600 
     36 H4         -5.1537   29.1648   60.9429 H         1 <0>         0.1211 
     37 H5         -4.4253   28.8013   63.3812 H         1 <0>         0.1211 
     38 H6         -2.0235   22.2642   68.6011 H         1 <0>         0.1150 
     39 H7          0.9319   23.8998   71.3068 H         1 <0>         0.1150 
     40 H8         -2.1504   20.2512   69.9371 H         1 <0>         0.1150 
     41 H9          0.7722   21.9095   72.6810 H         1 <0>         0.1150 
     42 H10        -3.5347   27.9649   59.2205 H         1 <0>         0.2618 
     43 H11        -1.2292   26.1603   66.2927 H         1 <0>         0.1550 
     44 H12         1.2610   29.5256   65.4211 H         1 <0>         0.1550 
     45 H13         2.1087   17.7476   71.6213 H         1 <0>         0.0600 
     46 H14         1.3092   18.7647   70.4402 H         1 <0>         0.0600 
     47 H15        -1.9232   16.8582   70.7412 H         1 <0>         0.0600 
     48 H16        -1.1904   18.1762   69.8554 H         1 <0>         0.0600 
     49 H17         1.4291   19.9012   72.6490 H         1 <0>         0.0600 
     50 H18         0.6104   18.5780   73.4212 H         1 <0>         0.0600 
     51 H19        -1.8008   18.1008   72.8623 H         1 <0>         0.0600 
     52 H20        -2.6250   19.0923   71.7031 H         1 <0>         0.0600 
     53 H21        -2.7495   27.1659   64.7384 H         1 <0>         0.0600 
     54 H22        -1.6743   26.1552   63.7960 H         1 <0>         0.0600 
     55 H23         2.8464   29.0060   68.3281 H         1 <0>         0.3410 
     56 H24         0.5205   25.4669   70.3398 H         1 <0>         0.3000 
     57 H25         0.0691   16.6055   71.9631 H         1 <0>         0.2900 
@<TRIPOS>BOND
     1    1   28 1    
     2    1   33 1    
     3    1   34 1    
     4    1   35 1    
     5    2    3 1    
     6    2    8 2    
     7    2   36 1    
     8    3   18 2    
     9    3   37 1    
    10    4    6 ar   
    11    4   16 ar   
    12    4   38 1    
    13    5    7 ar   
    14    5   16 ar   
    15    5   39 1    
    16    6   17 ar   
    17    6   40 1    
    18    7   17 ar   
    19    7   41 1    
    20    8   32 1    
    21    8   42 1    
    22    9   19 ar   
    23    9   27 ar   
    24    9   43 1    
    25   10   20 ar   
    26   10   27 ar   
    27   10   44 1    
    28   11   13 1    
    29   11   28 1    
    30   11   45 1    
    31   11   46 1    
    32   12   14 1    
    33   12   28 1    
    34   12   47 1    
    35   12   48 1    
    36   13   29 1    
    37   13   49 1    
    38   13   50 1    
    39   14   29 1    
    40   14   51 1    
    41   14   52 1    
    42   15   18 1    
    43   15   22 1    
    44   15   53 1    
    45   15   54 1    
    46   16   23 1    
    47   17   29 1    
    48   18   32 1    
    49   19   20 ar   
    50   19   21 ar   
    51   20   24 ar   
    52   21   25 ar   
    53   21   26 1    
    54   22   27 1    
    55   22   30 2    
    56   23   26 am   BACKBONE|DICT|INTERRES
    57   23   31 2    
    58   24   25 ar   
    59   24   55 1    
    60   26   56 1    
    61   28   57 1    
@<TRIPOS>SUBSTRUCTURE
     1 <0>         1 GROUP             0       ****    0 ROOT    
@<TRIPOS>MOLECULE
plk1-ligand
57   61    1
SMALL
USER_CHARGES


@<TRIPOS>ATOM
      1 C1         -0.3245   15.7250   72.7514 C.3       1 <0>         0.0900 
      2 C2         -5.4597   27.9550   63.0437 C.2       1 <0>        -0.0738 
      3 C3         -4.4768   27.3119   63.8517 C.2       1 <0>        -0.0738 
      4 C4         -1.3144   22.2219   69.2901 C.ar      1 <0>        -0.1150 
      5 C5          0.3209   23.1698   70.8187 C.ar      1 <0>        -0.1150 
      6 C6         -1.4439   21.0953   70.1246 C.ar      1 <0>        -0.1150 
      7 C7          0.1923   22.0412   71.6513 C.ar      1 <0>        -0.1150 
      8 C8         -4.9660   28.3658   61.8341 C.2       1 <0>        -0.3255 
      9 C9         -0.4252   26.6886   66.3879 C.ar      1 <0>        -0.1630 
     10 C10         0.8283   28.4716   65.7611 C.ar      1 <0>        -0.1630 
     11 C11         0.5888   17.9402   72.7908 C.3       1 <0>         0.1500 
     12 C12        -1.6361   17.5756   71.9782 C.3       1 <0>         0.1500 
     13 C13         0.2929   19.4328   73.0292 C.3       1 <0>         0.0900 
     14 C14        -1.9933   19.0582   72.1951 C.3       1 <0>         0.0900 
     15 C15        -1.9903   26.6378   63.7970 C.3       1 <0>        -0.0050 
     16 C16        -0.4388   23.2739   69.6321 C.ar      1 <0>        -0.1150 
     17 C17        -0.6887   20.9869   71.3175 C.ar      1 <0>         0.2100 
     18 C18        -3.2466   27.2383   63.2482 C.2       1 <0>        -0.1787 
     19 C19         0.4979   27.0709   67.3172 C.ar      1 <0>        -0.1544 
     20 C20         1.2442   28.1053   66.9837 C.ar      1 <0>         0.0934 
     21 C21         0.8810   26.6288   68.5991 C.ar      1 <0>         0.4230 
     22 C22        -0.9126   27.6869   64.1045 C.2       1 <0>         0.6225 
     23 C23        -0.2936   24.4558   68.7150 C.2       1 <0>         0.6150 
     24 N1          2.1109   28.3559   68.0167 N.pl3     1 <0>        -0.1490 
     25 N2          1.8819   27.4346   69.0229 N.2       1 <0>        -0.5310 
     26 N3          0.2820   25.5366   69.2699 N.am      1 <0>        -0.3850 
     27 N4         -0.2068   27.6190   65.3537 N.pl3     1 <0>        -0.0445 
     28 N5         -0.6330   17.1485   72.9571 N.4       1 <0>        -0.1000 
     29 N6         -0.7892   19.8917   72.1512 N.pl3     1 <0>        -0.6300 
     30 O1         -0.6176   28.5919   63.3222 O.2       1 <0>        -0.5000 
     31 O2         -0.7458   24.4098   67.5713 O.2       1 <0>        -0.5000 
     32 S1         -3.2788   27.9682   61.6622 S.3       1 <0>         0.0328 
     33 H1          0.0084   15.5392   71.7292 H         1 <0>         0.0600 
     34 H2          0.4630   15.3984   73.4316 H         1 <0>         0.0600 
     35 H3         -1.2035   15.1080   72.9417 H         1 <0>         0.0600 
     36 H4         -6.4794   28.0909   63.3732 H         1 <0>         0.1211 
     37 H5         -4.7049   26.9277   64.8351 H         1 <0>         0.1211 
     38 H6         -1.8956   22.2737   68.3801 H         1 <0>         0.1150 
     39 H7          1.0146   23.9490   71.0999 H         1 <0>         0.1150 
     40 H8         -2.1235   20.3156   69.8160 H         1 <0>         0.1150 
     41 H9          0.7760   22.0005   72.5590 H         1 <0>         0.1150 
     42 H10        -5.4872   28.8735   61.0358 H         1 <0>         0.2618 
     43 H11        -1.1623   25.8998   66.3657 H         1 <0>         0.1550 
     44 H12         1.1803   29.2761   65.1311 H         1 <0>         0.1550 
     45 H13         1.3482   17.6051   73.4972 H         1 <0>         0.0600 
     46 H14         1.0036   17.7977   71.7929 H         1 <0>         0.0600 
     47 H15        -2.5359   16.9686   72.0787 H         1 <0>         0.0600 
     48 H16        -1.2678   17.4252   70.9634 H         1 <0>         0.0600 
     49 H17         1.2091   20.0051   72.8841 H         1 <0>         0.0600 
     50 H18        -0.0040   19.5978   74.0649 H         1 <0>         0.0600 
     51 H19        -2.5257   19.1636   73.1404 H         1 <0>         0.0600 
     52 H20        -2.6821   19.3970   71.4213 H         1 <0>         0.0600 
     53 H21        -2.2176   26.0877   64.7104 H         1 <0>         0.0600 
     54 H22        -1.5840   25.9175   63.0867 H         1 <0>         0.0600 
     55 H23         2.8136   29.0796   68.0766 H         1 <0>         0.3410 
     56 H24         0.3038   25.5721   70.2768 H         1 <0>         0.3000 
     57 H25        -0.9962   17.2862   73.8894 H         1 <0>         0.2900 
@<TRIPOS>BOND
     1    1   28 1    
     2    1   33 1    
     3    1   34 1    
     4    1   35 1    
     5    2    3 1    
     6    2    8 2    
     7    2   36 1    
     8    3   18 2    
     9    3   37 1    
    10    4    6 ar   
    11    4   16 ar   
    12    4   38 1    
    13    5    7 ar   
    14    5   16 ar   
    15    5   39 1    
    16    6   17 ar   
    17    6   40 1    
    18    7   17 ar   
    19    7   41 1    
    20    8   32 1    
    21    8   42 1    
    22    9   19 ar   
    23    9   27 ar   
    24    9   43 1    
    25   10   20 ar   
    26   10   27 ar   
    27   10   44 1    
    28   11   13 1    
    29   11   28 1    
    30   11   45 1    
    31   11   46 1    
    32   12   14 1    
    33   12   28 1    
    34   12   47 1    
    35   12   48 1    
    36   13   29 1    
    37   13   49 1    
    38   13   50 1    
    39   14   29 1    
    40   14   51 1    
    41   14   52 1    
    42   15   18 1    
    43   15   22 1    
    44   15   53 1    
    45   15   54 1    
    46   16   23 1    
    47   17   29 1    
    48   18   32 1    
    49   19   20 ar   
    50   19   21 ar   
    51   20   24 ar   
    52   21   25 ar   
    53   21   26 1    
    54   22   27 1    
    55   22   30 2    
    56   23   26 am   BACKBONE|DICT|INTERRES
    57   23   31 2    
    58   24   25 ar   
    59   24   55 1    
    60   26   56 1    
    61   28   57 1    
@<TRIPOS>SUBSTRUCTURE
     1 <0>         1 GROUP             0       ****    0 ROOT    
@<TRIPOS>MOLECULE
plk1-ligand
57   61    1
SMALL
USER_CHARGES


@<TRIPOS>ATOM
      1 C1         -2.8375   17.5493   74.9912 C.3       1 <0>         0.0900 
      2 C2         -5.0391   28.4384   61.9704 C.2       1 <0>        -0.0738 
      3 C3         -4.4031   27.9386   63.1443 C.2       1 <0>        -0.0738 
      4 C4         -1.3997   22.2608   69.4135 C.ar      1 <0>        -0.1150 
      5 C5          0.3808   23.1651   70.7999 C.ar      1 <0>        -0.1150 
      6 C6         -1.4807   21.1319   70.2510 C.ar      1 <0>        -0.1150 
      7 C7          0.3003   22.0342   71.6354 C.ar      1 <0>        -0.1150 
      8 C8         -4.2422   28.3565   60.8596 C.2       1 <0>        -0.3255 
      9 C9         -0.5023   26.7619   66.4275 C.ar      1 <0>        -0.1630 
     10 C10         0.8333   28.4833   65.7982 C.ar      1 <0>        -0.1630 
     11 C11        -2.2502   18.0632   72.7255 C.3       1 <0>         0.1500 
     12 C12        -1.4366   19.4343   74.5148 C.3       1 <0>         0.1500 
     13 C13        -1.1443   18.5769   71.7846 C.3       1 <0>         0.0900 
     14 C14        -0.3078   19.9850   73.6230 C.3       1 <0>         0.0900 
     15 C15        -2.1740   26.8933   63.9051 C.3       1 <0>        -0.0050 
     16 C16        -0.4759   23.2923   69.6835 C.ar      1 <0>        -0.1150 
     17 C17        -0.6282   21.0004   71.3740 C.ar      1 <0>         0.2100 
     18 C18        -3.1304   27.4800   62.9145 C.2       1 <0>        -0.1787 
     19 C19         0.4382   27.1013   67.3559 C.ar      1 <0>        -0.1544 
     20 C20         1.2322   28.0991   67.0209 C.ar      1 <0>         0.0934 
     21 C21         0.8008   26.6431   68.6381 C.ar      1 <0>         0.4230 
     22 C22        -0.9435   27.7797   64.1432 C.2       1 <0>         0.6225 
     23 C23        -0.3850   24.4766   68.7625 C.2       1 <0>         0.6150 
     24 N1          2.1103   28.3098   68.0533 N.pl3     1 <0>        -0.1490 
     25 N2          1.8387   27.4013   69.0606 N.2       1 <0>        -0.5310 
     26 N3          0.1515   25.5809   69.3104 N.am      1 <0>        -0.3850 
     27 N4         -0.2410   27.6800   65.3921 N.pl3     1 <0>        -0.0445 
     28 N5         -1.7776   18.0673   74.1125 N.4       1 <0>        -0.1000 
     29 N6         -0.6798   19.9024   72.2083 N.pl3     1 <0>        -0.6300 
     30 O1         -0.5222   28.5784   63.3050 O.2       1 <0>        -0.5000 
     31 O2         -0.8441   24.4097   67.6226 O.2       1 <0>        -0.5000 
     32 S1         -2.6902   27.6601   61.2343 S.3       1 <0>         0.0328 
     33 H1         -3.7123   18.2012   74.9776 H         1 <0>         0.0600 
     34 H2         -3.1492   16.5533   74.6746 H         1 <0>         0.0600 
     35 H3         -2.4837   17.4742   76.0202 H         1 <0>         0.0600 
     36 H4         -6.0441   28.8340   61.9820 H         1 <0>         0.1211 
     37 H5         -4.8971   27.9305   64.1049 H         1 <0>         0.1211 
     38 H6         -2.0557   22.3303   68.5571 H         1 <0>         0.1150 
     39 H7          1.1123   23.9280   71.0237 H         1 <0>         0.1150 
     40 H8         -2.2007   20.3684   69.9986 H         1 <0>         0.1150 
     41 H9          0.9589   21.9757   72.4893 H         1 <0>         0.1150 
     42 H10        -4.4705   28.6591   59.8481 H         1 <0>         0.2618 
     43 H11        -1.2757   26.0086   66.4064 H         1 <0>         0.1550 
     44 H12         1.2225   29.2697   65.1672 H         1 <0>         0.1550 
     45 H13        -2.5336   17.0524   72.4320 H         1 <0>         0.0600 
     46 H14        -3.1422   18.6813   72.6238 H         1 <0>         0.0600 
     47 H15        -1.1132   19.4459   75.5557 H         1 <0>         0.0600 
     48 H16        -2.3117   20.0809   74.4508 H         1 <0>         0.0600 
     49 H17        -1.5210   18.5822   70.7617 H         1 <0>         0.0600 
     50 H18        -0.2966   17.8918   71.7893 H         1 <0>         0.0600 
     51 H19         0.6126   19.4403   73.8332 H         1 <0>         0.0600 
     52 H20        -0.1054   21.0268   73.8716 H         1 <0>         0.0600 
     53 H21        -2.6842   26.7357   64.8555 H         1 <0>         0.0600 
     54 H22        -1.8383   25.9151   63.5602 H         1 <0>         0.0600 
     55 H23         2.8463   28.9997   68.1121 H         1 <0>         0.3410 
     56 H24         0.0998   25.6604   70.3136 H         1 <0>         0.3000 
     57 H25        -0.9577   17.4823   74.1881 H         1 <0>         0.2900 
@<TRIPOS>BOND
     1    1   28 1    
     2    1   33 1    
     3    1   34 1    
     4    1   35 1    
     5    2    3 1    
     6    2    8 2    
     7    2   36 1    
     8    3   18 2    
     9    3   37 1    
    10    4    6 ar   
    11    4   16 ar   
    12    4   38 1    
    13    5    7 ar   
    14    5   16 ar   
    15    5   39 1    
    16    6   17 ar   
    17    6   40 1    
    18    7   17 ar   
    19    7   41 1    
    20    8   32 1    
    21    8   42 1    
    22    9   19 ar   
    23    9   27 ar   
    24    9   43 1    
    25   10   20 ar   
    26   10   27 ar   
    27   10   44 1    
    28   11   13 1    
    29   11   28 1    
    30   11   45 1    
    31   11   46 1    
    32   12   14 1    
    33   12   28 1    
    34   12   47 1    
    35   12   48 1    
    36   13   29 1    
    37   13   49 1    
    38   13   50 1    
    39   14   29 1    
    40   14   51 1    
    41   14   52 1    
    42   15   18 1    
    43   15   22 1    
    44   15   53 1    
    45   15   54 1    
    46   16   23 1    
    47   17   29 1    
    48   18   32 1    
    49   19   20 ar   
    50   19   21 ar   
    51   20   24 ar   
    52   21   25 ar   
    53   21   26 1    
    54   22   27 1    
    55   22   30 2    
    56   23   26 am   BACKBONE|DICT|INTERRES
    57   23   31 2    
    58   24   25 ar   
    59   24   55 1    
    60   26   56 1    
    61   28   57 1    
@<TRIPOS>SUBSTRUCTURE
     1 <0>         1 GROUP             0       ****    0 ROOT    
@<TRIPOS>MOLECULE
plk1-ligand
57   61    1
SMALL
USER_CHARGES


@<TRIPOS>ATOM
      1 C1         -1.0217   18.0685   76.0206 C.3       1 <0>         0.0900 
      2 C2         -3.2468   27.9651   60.2775 C.2       1 <0>        -0.0738 
      3 C3         -2.2882   27.3181   61.1097 C.2       1 <0>        -0.0738 
      4 C4         -1.4435   22.2490   69.4970 C.ar      1 <0>        -0.1150 
      5 C5          0.2940   23.1648   70.9259 C.ar      1 <0>        -0.1150 
      6 C6         -1.4778   21.0784   70.2801 C.ar      1 <0>        -0.1150 
      7 C7          0.2433   22.0037   71.7203 C.ar      1 <0>        -0.1150 
      8 C8         -4.2329   28.5895   60.9871 C.2       1 <0>        -0.3255 
      9 C9         -0.3356   26.8661   66.2690 C.ar      1 <0>        -0.1630 
     10 C10         0.9767   28.6623   65.8610 C.ar      1 <0>        -0.1630 
     11 C11        -2.0315   18.8148   73.8971 C.3       1 <0>         0.1500 
     12 C12         0.3821   19.1374   74.2984 C.3       1 <0>         0.1500 
     13 C13        -1.8146   18.9714   72.3791 C.3       1 <0>         0.0900 
     14 C14         0.6210   19.2629   72.7845 C.3       1 <0>         0.0900 
     15 C15        -1.7341   27.0085   63.6061 C.3       1 <0>        -0.0050 
     16 C16        -0.5365   23.2937   69.7874 C.ar      1 <0>        -0.1150 
     17 C17        -0.6153   20.9294   71.3900 C.ar      1 <0>         0.2100 
     18 C18        -2.5389   27.4939   62.4454 C.2       1 <0>        -0.1787 
     19 C19         0.5341   27.1397   67.2855 C.ar      1 <0>        -0.1544 
     20 C20         1.3065   28.1936   67.0755 C.ar      1 <0>         0.0934 
     21 C21         0.8427   26.5999   68.5604 C.ar      1 <0>         0.4230 
     22 C22        -0.6510   28.0105   64.0358 C.2       1 <0>         0.6225 
     23 C23        -0.3813   24.4416   68.8208 C.2       1 <0>         0.6150 
     24 N1          2.1106   28.3631   68.1692 N.pl3     1 <0>        -0.1490 
     25 N2          1.8453   27.3437   69.0682 N.2       1 <0>        -0.5310 
     26 N3          0.2783   25.5174   69.2811 N.am      1 <0>        -0.3850 
     27 N4         -0.0330   27.8588   65.3222 N.pl3     1 <0>        -0.0445 
     28 N5         -0.8134   18.2982   74.5745 N.4       1 <0>        -0.1000 
     29 N6         -0.5951   19.7274   72.1254 N.pl3     1 <0>        -0.6300 
     30 O1         -0.2682   28.9318   63.3109 O.2       1 <0>        -0.5000 
     31 O2         -0.8699   24.3589   67.6967 O.2       1 <0>        -0.5000 
     32 S1         -4.0018   28.4112   62.6978 S.3       1 <0>         0.0328 
     33 H1         -1.2178   19.0062   76.5435 H         1 <0>         0.0600 
     34 H2         -1.8672   17.4001   76.1901 H         1 <0>         0.0600 
     35 H3         -0.1415   17.6063   76.4705 H         1 <0>         0.0600 
     36 H4         -3.1852   27.9465   59.1986 H         1 <0>         0.1211 
     37 H5         -1.4485   26.7693   60.7074 H         1 <0>         0.1211 
     38 H6         -2.0791   22.3075   68.6237 H         1 <0>         0.1150 
     39 H7          1.0115   23.9290   71.1865 H         1 <0>         0.1150 
     40 H8         -2.1402   20.2801   69.9799 H         1 <0>         0.1150 
     41 H9          0.8974   21.9506   72.5764 H         1 <0>         0.1150 
     42 H10        -5.0733   29.1649   60.6192 H         1 <0>         0.2618 
     43 H11        -1.0901   26.1097   66.1238 H         1 <0>         0.1550 
     44 H12         1.3766   29.5071   65.3191 H         1 <0>         0.1550 
     45 H13        -2.8742   18.1463   74.0819 H         1 <0>         0.0600 
     46 H14        -2.2889   19.7815   74.3330 H         1 <0>         0.0600 
     47 H15         1.2618   18.7017   74.7752 H         1 <0>         0.0600 
     48 H16         0.2419   20.1297   74.7331 H         1 <0>         0.0600 
     49 H17        -2.6886   19.4447   71.9299 H         1 <0>         0.0600 
     50 H18        -1.7156   17.9904   71.9094 H         1 <0>         0.0600 
     51 H19         0.8731   18.2855   72.3702 H         1 <0>         0.0600 
     52 H20         1.4828   19.8963   72.5783 H         1 <0>         0.0600 
     53 H21        -2.4056   26.8170   64.4434 H         1 <0>         0.0600 
     54 H22        -1.2562   26.0603   63.3599 H         1 <0>         0.0600 
     55 H23         2.8337   29.0652   68.3062 H         1 <0>         0.3410 
     56 H24         0.5484   25.4850   70.2541 H         1 <0>         0.3000 
     57 H25        -0.6280   17.3958   74.1605 H         1 <0>         0.2900 
@<TRIPOS>BOND
     1    1   28 1    
     2    1   33 1    
     3    1   34 1    
     4    1   35 1    
     5    2    3 1    
     6    2    8 2    
     7    2   36 1    
     8    3   18 2    
     9    3   37 1    
    10    4    6 ar   
    11    4   16 ar   
    12    4   38 1    
    13    5    7 ar   
    14    5   16 ar   
    15    5   39 1    
    16    6   17 ar   
    17    6   40 1    
    18    7   17 ar   
    19    7   41 1    
    20    8   32 1    
    21    8   42 1    
    22    9   19 ar   
    23    9   27 ar   
    24    9   43 1    
    25   10   20 ar   
    26   10   27 ar   
    27   10   44 1    
    28   11   13 1    
    29   11   28 1    
    30   11   45 1    
    31   11   46 1    
    32   12   14 1    
    33   12   28 1    
    34   12   47 1    
    35   12   48 1    
    36   13   29 1    
    37   13   49 1    
    38   13   50 1    
    39   14   29 1    
    40   14   51 1    
    41   14   52 1    
    42   15   18 1    
    43   15   22 1    
    44   15   53 1    
    45   15   54 1    
    46   16   23 1    
    47   17   29 1    
    48   18   32 1    
    49   19   20 ar   
    50   19   21 ar   
    51   20   24 ar   
    52   21   25 ar   
    53   21   26 1    
    54   22   27 1    
    55   22   30 2    
    56   23   26 am   BACKBONE|DICT|INTERRES
    57   23   31 2    
    58   24   25 ar   
    59   24   55 1    
    60   26   56 1    
    61   28   57 1    
@<TRIPOS>SUBSTRUCTURE
     1 <0>         1 GROUP             0       ****    0 ROOT    
@<TRIPOS>MOLECULE
plk1-ligand
57   61    1
SMALL
USER_CHARGES


@<TRIPOS>ATOM
      1 C1          0.4898   16.2021   70.0547 C.3       1 <0>         0.0900 
      2 C2         -2.2894   26.7649   60.3345 C.2       1 <0>        -0.0738 
      3 C3         -1.7962   26.4685   61.6279 C.2       1 <0>        -0.0738 
      4 C4         -1.3655   22.3022   69.4972 C.ar      1 <0>        -0.1150 
      5 C5          0.3099   23.1594   71.0269 C.ar      1 <0>        -0.1150 
      6 C6         -1.4725   21.1244   70.2588 C.ar      1 <0>        -0.1150 
      7 C7          0.1855   21.9879   71.8012 C.ar      1 <0>        -0.1150 
      8 C8         -3.0894   27.8777   60.2994 C.2       1 <0>        -0.3255 
      9 C9         -0.3221   27.0378   66.5099 C.ar      1 <0>        -0.1630 
     10 C10         1.0117   28.8150   66.0762 C.ar      1 <0>        -0.1630 
     11 C11         1.0686   18.1937   71.3866 C.3       1 <0>         0.1500 
     12 C12        -1.2819   17.7575   70.7704 C.3       1 <0>         0.1500 
     13 C13         0.5891   19.1397   72.5039 C.3       1 <0>         0.0900 
     14 C14        -1.7351   18.7318   71.8795 C.3       1 <0>         0.0900 
     15 C15        -1.9126   27.3282   64.0173 C.3       1 <0>        -0.0050 
     16 C16        -0.4480   23.3176   69.8450 C.ar      1 <0>        -0.1150 
     17 C17        -0.6740   20.9314   71.4122 C.ar      1 <0>         0.2100 
     18 C18        -2.2357   27.3545   62.5711 C.2       1 <0>        -0.1787 
     19 C19         0.6397   27.2292   67.4512 C.ar      1 <0>        -0.1544 
     20 C20         1.4194   28.2738   67.2325 C.ar      1 <0>         0.0934 
     21 C21         1.0332   26.6042   68.6571 C.ar      1 <0>         0.4230 
     22 C22        -0.7654   28.2829   64.3669 C.2       1 <0>         0.6225 
     23 C23        -0.2098   24.4594   68.8890 C.2       1 <0>         0.6150 
     24 N1          2.3119   28.3611   68.2606 N.pl3     1 <0>        -0.1490 
     25 N2          2.1105   27.2792   69.0972 N.2       1 <0>        -0.5310 
     26 N3          0.4568   25.5214   69.3747 N.am      1 <0>        -0.3850 
     27 N4         -0.0583   28.0630   65.5873 N.pl3     1 <0>        -0.0445 
     28 N5          0.0423   17.1629   71.0860 N.4       1 <0>        -0.1000 
     29 N6         -0.7052   19.7309   72.1610 N.pl3     1 <0>        -0.6300 
     30 O1         -0.4201   29.2247   63.6491 O.2       1 <0>        -0.5000 
     31 O2         -0.6243   24.3706   67.7352 O.2       1 <0>        -0.5000 
     32 S1         -3.2733   28.5750   61.8811 S.3       1 <0>         0.0328 
     33 H1          0.6291   16.7019   69.0973 H         1 <0>         0.0600 
     34 H2          1.4351   15.7376   70.3379 H         1 <0>         0.0600 
     35 H3         -0.2449   15.4075   69.9195 H         1 <0>         0.0600 
     36 H4         -2.0396   26.1379   59.4972 H         1 <0>         0.1211 
     37 H5         -1.1514   25.6237   61.8194 H         1 <0>         0.1211 
     38 H6         -1.9532   22.3864   68.5937 H         1 <0>         0.1150 
     39 H7          1.0240   23.9069   71.3399 H         1 <0>         0.1150 
     40 H8         -2.1574   20.3709   69.9050 H         1 <0>         0.1150 
     41 H9          0.7826   21.9115   72.6971 H         1 <0>         0.1150 
     42 H10        -3.6106   28.3059   59.4547 H         1 <0>         0.2618 
     43 H11        -1.1143   26.3136   66.4103 H         1 <0>         0.1550 
     44 H12         1.3955   29.6733   65.5437 H         1 <0>         0.1550 
     45 H13         2.0005   17.7127   71.6870 H         1 <0>         0.0600 
     46 H14         1.2856   18.7642   70.4824 H         1 <0>         0.0600 
     47 H15        -2.0229   16.9657   70.6535 H         1 <0>         0.0600 
     48 H16        -1.2202   18.2729   69.8109 H         1 <0>         0.0600 
     49 H17         1.3571   19.8864   72.6998 H         1 <0>         0.0600 
     50 H18         0.4740   18.5838   73.4355 H         1 <0>         0.0600 
     51 H19        -1.9171   18.1735   72.7989 H         1 <0>         0.0600 
     52 H20        -2.6890   19.1984   71.6324 H         1 <0>         0.0600 
     53 H21        -2.7930   27.5654   64.6125 H         1 <0>         0.0600 
     54 H22        -1.6295   26.3089   64.2786 H         1 <0>         0.0600 
     55 H23         3.0739   29.0311   68.3743 H         1 <0>         0.3410 
     56 H24         0.7049   25.4866   70.3565 H         1 <0>         0.3000 
     57 H25        -0.0835   16.6365   71.9381 H         1 <0>         0.2900 
@<TRIPOS>BOND
     1    1   28 1    
     2    1   33 1    
     3    1   34 1    
     4    1   35 1    
     5    2    3 1    
     6    2    8 2    
     7    2   36 1    
     8    3   18 2    
     9    3   37 1    
    10    4    6 ar   
    11    4   16 ar   
    12    4   38 1    
    13    5    7 ar   
    14    5   16 ar   
    15    5   39 1    
    16    6   17 ar   
    17    6   40 1    
    18    7   17 ar   
    19    7   41 1    
    20    8   32 1    
    21    8   42 1    
    22    9   19 ar   
    23    9   27 ar   
    24    9   43 1    
    25   10   20 ar   
    26   10   27 ar   
    27   10   44 1    
    28   11   13 1    
    29   11   28 1    
    30   11   45 1    
    31   11   46 1    
    32   12   14 1    
    33   12   28 1    
    34   12   47 1    
    35   12   48 1    
    36   13   29 1    
    37   13   49 1    
    38   13   50 1    
    39   14   29 1    
    40   14   51 1    
    41   14   52 1    
    42   15   18 1    
    43   15   22 1    
    44   15   53 1    
    45   15   54 1    
    46   16   23 1    
    47   17   29 1    
    48   18   32 1    
    49   19   20 ar   
    50   19   21 ar   
    51   20   24 ar   
    52   21   25 ar   
    53   21   26 1    
    54   22   27 1    
    55   22   30 2    
    56   23   26 am   BACKBONE|DICT|INTERRES
    57   23   31 2    
    58   24   25 ar   
    59   24   55 1    
    60   26   56 1    
    61   28   57 1    
@<TRIPOS>SUBSTRUCTURE
     1 <0>         1 GROUP             0       ****    0 ROOT    
@<TRIPOS>MOLECULE
plk1-ligand
57   61    1
SMALL
USER_CHARGES


@<TRIPOS>ATOM
      1 C1         -2.8519   17.5961   74.8226 C.3       1 <0>         0.0900 
      2 C2         -3.4004   27.9639   60.2975 C.2       1 <0>        -0.0738 
      3 C3         -2.4183   27.3563   61.1334 C.2       1 <0>        -0.0738 
      4 C4         -1.4151   22.2990   69.1955 C.ar      1 <0>        -0.1150 
      5 C5          0.2618   23.2563   70.6725 C.ar      1 <0>        -0.1150 
      6 C6         -1.4914   21.1590   70.0183 C.ar      1 <0>        -0.1150 
      7 C7          0.1862   22.1143   71.4932 C.ar      1 <0>        -0.1150 
      8 C8         -4.4149   28.5474   61.0089 C.2       1 <0>        -0.3255 
      9 C9         -0.4082   26.8469   66.2636 C.ar      1 <0>        -0.1630 
     10 C10         0.9893   28.5481   65.7195 C.ar      1 <0>        -0.1630 
     11 C11        -2.3283   18.1282   72.5455 C.3       1 <0>         0.1500 
     12 C12        -1.4267   19.4571   74.3245 C.3       1 <0>         0.1500 
     13 C13        -1.2430   18.6311   71.5752 C.3       1 <0>         0.0900 
     14 C14        -0.3162   19.9958   73.4030 C.3       1 <0>         0.0900 
     15 C15        -1.8922   26.9740   63.6268 C.3       1 <0>        -0.0050 
     16 C16        -0.5458   23.3623   69.5180 C.ar      1 <0>        -0.1150 
     17 C17        -0.6881   21.0485   71.1792 C.ar      1 <0>         0.2100 
     18 C18        -2.6944   27.4853   62.4714 C.2       1 <0>        -0.1787 
     19 C19         0.4724   27.1779   67.2518 C.ar      1 <0>        -0.1544 
     20 C20         1.3002   28.1639   66.9675 C.ar      1 <0>         0.0934 
     21 C21         0.7421   26.7204   68.5569 C.ar      1 <0>         0.4230 
     22 C22        -0.6818   27.8607   63.9515 C.2       1 <0>         0.6225 
     23 C23        -0.4578   24.5589   68.6127 C.2       1 <0>         0.6150 
     24 N1          2.1099   28.3674   68.0557 N.pl3     1 <0>        -0.1490 
     25 N2          1.7594   27.4668   69.0455 N.2       1 <0>        -0.5310 
     26 N3          0.0352   25.6697   69.1877 N.am      1 <0>        -0.3850 
     27 N4         -0.0660   27.7571   65.2450 N.pl3     1 <0>        -0.0445 
     28 N5         -1.8104   18.1033   73.9161 N.4       1 <0>        -0.1000 
     29 N6         -0.7361   19.9405   72.0005 N.pl3     1 <0>        -0.6300 
     30 O1         -0.2053   28.6629   63.1468 O.2       1 <0>        -0.5000 
     31 O2         -0.8822   24.4938   67.4593 O.2       1 <0>        -0.5000 
     32 S1         -4.1825   28.3629   62.7253 S.3       1 <0>         0.0328 
     33 H1         -3.7122   18.2666   74.8464 H         1 <0>         0.0600 
     34 H2         -3.1953   16.6113   74.5036 H         1 <0>         0.0600 
     35 H3         -2.4662   17.4994   75.8382 H         1 <0>         0.0600 
     36 H4         -3.3287   27.9522   59.2198 H         1 <0>         0.1211 
     37 H5         -1.5520   26.8539   60.7284 H         1 <0>         0.1211 
     38 H6         -2.0324   22.3523   68.3096 H         1 <0>         0.1150 
     39 H7          0.9519   24.0443   70.9373 H         1 <0>         0.1150 
     40 H8         -2.1686   20.3712   69.7254 H         1 <0>         0.1150 
     41 H9          0.8057   22.0721   72.3768 H         1 <0>         0.1150 
     42 H10        -5.2798   29.0738   60.6326 H         1 <0>         0.2618 
     43 H11        -1.1884   26.1037   66.1932 H         1 <0>         0.1550 
     44 H12         1.4303   29.3267   65.1133 H         1 <0>         0.1550 
     45 H13        -2.6430   17.1278   72.2485 H         1 <0>         0.0600 
     46 H14        -3.2095   18.7665   72.4815 H         1 <0>         0.0600 
     47 H15        -1.0692   19.4476   75.3542 H         1 <0>         0.0600 
     48 H16        -2.2893   20.1230   74.2979 H         1 <0>         0.0600 
     49 H17        -1.6529   18.6584   70.5656 H         1 <0>         0.0600 
     50 H18        -0.4106   17.9281   71.5430 H         1 <0>         0.0600 
     51 H19         0.5986   19.4288   73.5755 H         1 <0>         0.0600 
     52 H20        -0.0832   21.0296   73.6582 H         1 <0>         0.0600 
     53 H21        -2.5271   26.9068   64.5105 H         1 <0>         0.0600 
     54 H22        -1.5387   25.9649   63.4137 H         1 <0>         0.0600 
     55 H23         2.8494   29.0479   68.1614 H         1 <0>         0.3410 
     56 H24        -0.0997   25.7637   70.1819 H         1 <0>         0.3000 
     57 H25        -1.0014   17.5001   73.9568 H         1 <0>         0.2900 
@<TRIPOS>BOND
     1    1   28 1    
     2    1   33 1    
     3    1   34 1    
     4    1   35 1    
     5    2    3 1    
     6    2    8 2    
     7    2   36 1    
     8    3   18 2    
     9    3   37 1    
    10    4    6 ar   
    11    4   16 ar   
    12    4   38 1    
    13    5    7 ar   
    14    5   16 ar   
    15    5   39 1    
    16    6   17 ar   
    17    6   40 1    
    18    7   17 ar   
    19    7   41 1    
    20    8   32 1    
    21    8   42 1    
    22    9   19 ar   
    23    9   27 ar   
    24    9   43 1    
    25   10   20 ar   
    26   10   27 ar   
    27   10   44 1    
    28   11   13 1    
    29   11   28 1    
    30   11   45 1    
    31   11   46 1    
    32   12   14 1    
    33   12   28 1    
    34   12   47 1    
    35   12   48 1    
    36   13   29 1    
    37   13   49 1    
    38   13   50 1    
    39   14   29 1    
    40   14   51 1    
    41   14   52 1    
    42   15   18 1    
    43   15   22 1    
    44   15   53 1    
    45   15   54 1    
    46   16   23 1    
    47   17   29 1    
    48   18   32 1    
    49   19   20 ar   
    50   19   21 ar   
    51   20   24 ar   
    52   21   25 ar   
    53   21   26 1    
    54   22   27 1    
    55   22   30 2    
    56   23   26 am   BACKBONE|DICT|INTERRES
    57   23   31 2    
    58   24   25 ar   
    59   24   55 1    
    60   26   56 1    
    61   28   57 1    
@<TRIPOS>SUBSTRUCTURE
     1 <0>         1 GROUP             0       ****    0 ROOT    
@<TRIPOS>MOLECULE
plk1-ligand
57   61    1
SMALL
USER_CHARGES


@<TRIPOS>ATOM
      1 C1         -0.7939   18.2096   75.7482 C.3       1 <0>         0.0900 
      2 C2         -3.9730   28.7661   61.3283 C.2       1 <0>        -0.0738 
      3 C3         -3.3260   28.4292   62.5531 C.2       1 <0>        -0.0738 
      4 C4         -1.4300   22.4230   69.2613 C.ar      1 <0>        -0.1150 
      5 C5          0.2262   23.4709   70.6997 C.ar      1 <0>        -0.1150 
      6 C6         -1.3728   21.2541   70.0442 C.ar      1 <0>        -0.1150 
      7 C7          0.2841   22.3002   71.4805 C.ar      1 <0>        -0.1150 
      8 C8         -3.5216   28.0253   60.2685 C.2       1 <0>        -0.3255 
      9 C9         -0.2914   26.8650   66.2401 C.ar      1 <0>        -0.1630 
     10 C10         1.2711   28.4107   65.6810 C.ar      1 <0>        -0.1630 
     11 C11        -1.7800   18.9014   73.6765 C.3       1 <0>         0.1500 
     12 C12         0.5033   19.4474   74.1582 C.3       1 <0>         0.1500 
     13 C13        -1.5491   19.1197   72.1694 C.3       1 <0>         0.0900 
     14 C14         0.7970   19.6800   72.6641 C.3       1 <0>         0.0900 
     15 C15        -1.5250   26.8339   63.4759 C.3       1 <0>        -0.0050 
     16 C16        -0.6392   23.5455   69.5853 C.ar      1 <0>        -0.1150 
     17 C17        -0.5111   21.1744   71.1650 C.ar      1 <0>         0.2100 
     18 C18        -2.3908   27.4348   62.4132 C.2       1 <0>        -0.1787 
     19 C19         0.5489   27.1978   67.2621 C.ar      1 <0>        -0.1544 
     20 C20         1.4703   28.0945   66.9702 C.ar      1 <0>         0.0934 
     21 C21         0.6977   26.8160   68.6103 C.ar      1 <0>         0.4230 
     22 C22        -0.3353   27.7279   63.8522 C.2       1 <0>         0.6225 
     23 C23        -0.6932   24.7744   68.7217 C.2       1 <0>         0.6150 
     24 N1          2.2235   28.3132   68.0955 N.pl3     1 <0>        -0.1490 
     25 N2          1.7392   27.5155   69.1167 N.2       1 <0>        -0.5310 
     26 N3         -0.1307   25.8706   69.2597 N.am      1 <0>        -0.3850 
     27 N4          0.1872   27.6708   65.1890 N.pl3     1 <0>        -0.0445 
     28 N5         -0.5460   18.4371   74.3161 N.4       1 <0>        -0.1000 
     29 N6         -0.4285   20.0399   71.9464 N.pl3     1 <0>        -0.6300 
     30 O1          0.2016   28.4978   63.0540 O.2       1 <0>        -0.5000 
     31 O2         -1.2803   24.7446   67.6404 O.2       1 <0>        -0.5000 
     32 S1         -2.2898   26.8943   60.7558 S.3       1 <0>         0.0328 
     33 H1         -1.0542   19.1404   76.2542 H         1 <0>         0.0600 
     34 H2         -1.6123   17.5030   75.8909 H         1 <0>         0.0600 
     35 H3          0.0908   17.7939   76.2319 H         1 <0>         0.0600 
     36 H4         -4.7361   29.5284   61.2689 H         1 <0>         0.1211 
     37 H5         -3.5685   28.9207   63.4839 H         1 <0>         0.1211 
     38 H6         -2.0892   22.4525   68.4051 H         1 <0>         0.1150 
     39 H7          0.8590   24.3058   70.9637 H         1 <0>         0.1150 
     40 H8         -1.9941   20.4214   69.7516 H         1 <0>         0.1150 
     41 H9          0.9445   22.2820   72.3348 H         1 <0>         0.1150 
     42 H10        -3.8365   28.0724   59.2363 H         1 <0>         0.2618 
     43 H11        -1.1234   26.1806   66.1660 H         1 <0>         0.1550 
     44 H12         1.8112   29.1076   65.0560 H         1 <0>         0.1550 
     45 H13        -2.5718   18.1658   73.8179 H         1 <0>         0.0600 
     46 H14        -2.1250   19.8266   74.1381 H         1 <0>         0.0600 
     47 H15         1.4142   19.1190   74.6588 H         1 <0>         0.0600 
     48 H16         0.2060   20.3839   74.6301 H         1 <0>         0.0600 
     49 H17        -2.4724   19.4806   71.7163 H         1 <0>         0.0600 
     50 H18        -1.3248   18.1714   71.6809 H         1 <0>         0.0600 
     51 H19         1.2638   18.7873   72.2478 H         1 <0>         0.0600 
     52 H20         1.5226   20.4843   72.5434 H         1 <0>         0.0600 
     53 H21        -2.1211   26.6459   64.3692 H         1 <0>         0.0600 
     54 H22        -1.1444   25.8688   63.1407 H         1 <0>         0.0600 
     55 H23         3.0077   28.9409   68.2061 H         1 <0>         0.3410 
     56 H24        -0.3044   26.0355   70.2385 H         1 <0>         0.3000 
     57 H25        -0.2482   17.5753   73.8818 H         1 <0>         0.2900 
@<TRIPOS>BOND
     1    1   28 1    
     2    1   33 1    
     3    1   34 1    
     4    1   35 1    
     5    2    3 1    
     6    2    8 2    
     7    2   36 1    
     8    3   18 2    
     9    3   37 1    
    10    4    6 ar   
    11    4   16 ar   
    12    4   38 1    
    13    5    7 ar   
    14    5   16 ar   
    15    5   39 1    
    16    6   17 ar   
    17    6   40 1    
    18    7   17 ar   
    19    7   41 1    
    20    8   32 1    
    21    8   42 1    
    22    9   19 ar   
    23    9   27 ar   
    24    9   43 1    
    25   10   20 ar   
    26   10   27 ar   
    27   10   44 1    
    28   11   13 1    
    29   11   28 1    
    30   11   45 1    
    31   11   46 1    
    32   12   14 1    
    33   12   28 1    
    34   12   47 1    
    35   12   48 1    
    36   13   29 1    
    37   13   49 1    
    38   13   50 1    
    39   14   29 1    
    40   14   51 1    
    41   14   52 1    
    42   15   18 1    
    43   15   22 1    
    44   15   53 1    
    45   15   54 1    
    46   16   23 1    
    47   17   29 1    
    48   18   32 1    
    49   19   20 ar   
    50   19   21 ar   
    51   20   24 ar   
    52   21   25 ar   
    53   21   26 1    
    54   22   27 1    
    55   22   30 2    
    56   23   26 am   BACKBONE|DICT|INTERRES
    57   23   31 2    
    58   24   25 ar   
    59   24   55 1    
    60   26   56 1    
    61   28   57 1    
@<TRIPOS>SUBSTRUCTURE
     1 <0>         1 GROUP             0       ****    0 ROOT    
@<TRIPOS>MOLECULE
plk1-ligand
57   61    1
SMALL
USER_CHARGES


@<TRIPOS>ATOM
      1 C1         -0.3711   16.8143   70.2141 C.3       1 <0>         0.0900 
      2 C2         -2.0852   24.4076   62.2985 C.2       1 <0>        -0.0738 
      3 C3         -2.6416   25.5564   62.9250 C.2       1 <0>        -0.0738 
      4 C4          1.0236   23.9654   70.1870 C.ar      1 <0>        -0.1150 
      5 C5         -0.9324   24.2231   68.7881 C.ar      1 <0>        -0.1150 
      6 C6          0.5100   22.7650   70.6985 C.ar      1 <0>        -0.1150 
      7 C7         -1.4370   23.0009   69.2872 C.ar      1 <0>        -0.1150 
      8 C8         -1.4894   24.6867   61.0986 C.2       1 <0>        -0.3255 
      9 C9         -0.8343   27.8670   64.8994 C.ar      1 <0>        -0.1630 
     10 C10         0.2307   29.7631   64.2708 C.ar      1 <0>        -0.1630 
     11 C11         0.0352   18.9557   71.3600 C.3       1 <0>         0.1500 
     12 C12        -1.7059   18.7842   69.5795 C.3       1 <0>         0.1500 
     13 C13        -0.6057   20.2701   71.8295 C.3       1 <0>         0.0900 
     14 C14        -2.2151   20.1798   69.9835 C.3       1 <0>         0.0900 
     15 C15        -2.8645   28.0886   62.5797 C.3       1 <0>        -0.0050 
     16 C16         0.3275   24.7090   69.2100 C.ar      1 <0>        -0.1150 
     17 C17        -0.7119   22.2235   70.2291 C.ar      1 <0>         0.2100 
     18 C18        -2.4436   26.7044   62.2036 C.2       1 <0>        -0.1787 
     19 C19         0.1686   28.2397   65.7482 C.ar      1 <0>        -0.1544 
     20 C20         0.8060   29.3438   65.4095 C.ar      1 <0>         0.0934 
     21 C21         0.7288   27.7411   66.9460 C.ar      1 <0>         0.4230 
     22 C22        -1.6668   29.0238   62.7743 C.2       1 <0>         0.6225 
     23 C23         0.9546   25.9665   68.6478 C.2       1 <0>         0.6150 
     24 N1          1.7671   29.5905   66.3554 N.pl3     1 <0>        -0.1490 
     25 N2          1.7104   28.5970   67.3111 N.2       1 <0>        -0.5310 
     26 N3          0.3181   26.5592   67.6176 N.am      1 <0>        -0.3850 
     27 N4         -0.8018   28.8837   63.9207 N.pl3     1 <0>        -0.0445 
     28 N5         -0.9599   18.0938   70.6674 N.4       1 <0>        -0.1000 
     29 N6         -1.1906   20.9623   70.6854 N.pl3     1 <0>        -0.6300 
     30 O1         -1.4269   29.9240   61.9659 O.2       1 <0>        -0.5000 
     31 O2          2.0335   26.3655   69.0972 O.2       1 <0>        -0.5000 
     32 S1         -1.6201   26.3649   60.6999 S.3       1 <0>         0.0328 
     33 H1          0.4087   16.9842   69.4695 H         1 <0>         0.0600 
     34 H2          0.0711   16.2732   71.0512 H         1 <0>         0.0600 
     35 H3         -1.1325   16.1718   69.7687 H         1 <0>         0.0600 
     36 H4         -2.1423   23.4282   62.7471 H         1 <0>         0.1211 
     37 H5         -3.1480   25.5028   63.8770 H         1 <0>         0.1211 
     38 H6          1.9824   24.3079   70.5488 H         1 <0>         0.1150 
     39 H7         -1.5195   24.7613   68.0596 H         1 <0>         0.1150 
     40 H8          1.1318   22.2538   71.4137 H         1 <0>         0.1150 
     41 H9         -2.3959   22.6814   68.9133 H         1 <0>         0.1150 
     42 H10        -1.0017   24.0093   60.4136 H         1 <0>         0.2618 
     43 H11        -1.5254   27.0402   64.9115 H         1 <0>         0.1550 
     44 H12         0.4585   30.6326   63.6718 H         1 <0>         0.1550 
     45 H13         0.4410   18.4203   72.2196 H         1 <0>         0.0600 
     46 H14         0.8746   19.1641   70.6969 H         1 <0>         0.0600 
     47 H15        -2.5512   18.1646   69.2746 H         1 <0>         0.0600 
     48 H16        -1.0893   18.8742   68.6971 H         1 <0>         0.0600 
     49 H17         0.0992   20.8663   72.4043 H         1 <0>         0.0600 
     50 H18        -1.4118   20.0493   72.5313 H         1 <0>         0.0600 
     51 H19        -3.0526   20.0211   70.6611 H         1 <0>         0.0600 
     52 H20        -2.6142   20.6709   69.0986 H         1 <0>         0.0600 
     53 H21        -3.5161   28.4993   61.8078 H         1 <0>         0.0600 
     54 H22        -3.4535   28.0735   63.4972 H         1 <0>         0.0600 
     55 H23         2.4200   30.3600   66.3992 H         1 <0>         0.3410 
     56 H24        -0.5189   26.1193   67.2710 H         1 <0>         0.3000 
     57 H25        -1.6519   17.8619   71.3653 H         1 <0>         0.2900 
@<TRIPOS>BOND
     1    1   28 1    
     2    1   33 1    
     3    1   34 1    
     4    1   35 1    
     5    2    3 1    
     6    2    8 2    
     7    2   36 1    
     8    3   18 2    
     9    3   37 1    
    10    4    6 ar   
    11    4   16 ar   
    12    4   38 1    
    13    5    7 ar   
    14    5   16 ar   
    15    5   39 1    
    16    6   17 ar   
    17    6   40 1    
    18    7   17 ar   
    19    7   41 1    
    20    8   32 1    
    21    8   42 1    
    22    9   19 ar   
    23    9   27 ar   
    24    9   43 1    
    25   10   20 ar   
    26   10   27 ar   
    27   10   44 1    
    28   11   13 1    
    29   11   28 1    
    30   11   45 1    
    31   11   46 1    
    32   12   14 1    
    33   12   28 1    
    34   12   47 1    
    35   12   48 1    
    36   13   29 1    
    37   13   49 1    
    38   13   50 1    
    39   14   29 1    
    40   14   51 1    
    41   14   52 1    
    42   15   18 1    
    43   15   22 1    
    44   15   53 1    
    45   15   54 1    
    46   16   23 1    
    47   17   29 1    
    48   18   32 1    
    49   19   20 ar   
    50   19   21 ar   
    51   20   24 ar   
    52   21   25 ar   
    53   21   26 1    
    54   22   27 1    
    55   22   30 2    
    56   23   26 am   BACKBONE|DICT|INTERRES
    57   23   31 2    
    58   24   25 ar   
    59   24   55 1    
    60   26   56 1    
    61   28   57 1    
@<TRIPOS>SUBSTRUCTURE
     1 <0>         1 GROUP             0       ****    0 ROOT    
@<TRIPOS>MOLECULE
plk1-ligand
57   61    1
SMALL
USER_CHARGES


@<TRIPOS>ATOM
      1 C1         -0.9415   16.7574   70.2087 C.3       1 <0>         0.0900 
      2 C2         -3.2647   24.2398   64.0463 C.2       1 <0>        -0.0738 
      3 C3         -3.7394   25.5823   64.1149 C.2       1 <0>        -0.0738 
      4 C4         -0.9100   24.2287   68.7507 C.ar      1 <0>        -0.1150 
      5 C5          0.9881   24.0267   70.2562 C.ar      1 <0>        -0.1150 
      6 C6         -1.3781   22.9685   69.1693 C.ar      1 <0>        -0.1150 
      7 C7          0.5200   22.7653   70.6721 C.ar      1 <0>        -0.1150 
      8 C8         -2.2893   24.0697   63.1001 C.2       1 <0>        -0.3255 
      9 C9         -1.0571   27.6703   64.9891 C.ar      1 <0>        -0.1630 
     10 C10        -0.0145   29.4948   64.1363 C.ar      1 <0>        -0.1630 
     11 C11        -0.1002   18.7919   71.1551 C.3       1 <0>         0.1500 
     12 C12        -1.8258   18.8667   69.4937 C.3       1 <0>         0.1500 
     13 C13        -0.4543   20.2121   71.6346 C.3       1 <0>         0.0900 
     14 C14        -2.2277   20.2888   69.9283 C.3       1 <0>         0.0900 
     15 C15        -3.3629   27.8820   63.0148 C.3       1 <0>        -0.0050 
     16 C16         0.2714   24.7747   69.2954 C.ar      1 <0>        -0.1150 
     17 C17        -0.6670   22.2158   70.1352 C.ar      1 <0>         0.2100 
     18 C18        -3.1193   26.4198   63.2221 C.2       1 <0>        -0.1787 
     19 C19         0.0419   28.0615   65.6967 C.ar      1 <0>        -0.1544 
     20 C20         0.6722   29.1201   65.2271 C.ar      1 <0>         0.0934 
     21 C21         0.7116   27.6093   66.8511 C.ar      1 <0>         0.4230 
     22 C22        -2.0645   28.6918   62.8938 C.2       1 <0>         0.6225 
     23 C23         0.7703   26.1090   68.8160 C.2       1 <0>         0.6150 
     24 N1          1.7423   29.3766   66.0457 N.pl3     1 <0>        -0.1490 
     25 N2          1.7642   28.4338   67.0578 N.2       1 <0>        -0.5310 
     26 N3          0.3016   26.4914   67.6153 N.am      1 <0>        -0.3850 
     27 N4         -1.0958   28.6224   63.9522 N.pl3     1 <0>        -0.0445 
     28 N5         -1.2947   18.1197   70.6368 N.4       1 <0>        -0.1000 
     29 N6         -1.0975   20.9752   70.5593 N.pl3     1 <0>        -0.6300 
     30 O1         -1.8081   29.4032   61.9211 O.2       1 <0>        -0.5000 
     31 O2          1.5980   26.7338   69.4787 O.2       1 <0>        -0.5000 
     32 S1         -1.9321   25.5604   62.2729 S.3       1 <0>         0.0328 
     33 H1         -0.2332   16.7777   69.3791 H         1 <0>         0.0600 
     34 H2         -0.4895   16.1996   71.0298 H         1 <0>         0.0600 
     35 H3         -1.8290   16.2115   69.8866 H         1 <0>         0.0600 
     36 H4         -3.6494   23.4579   64.6846 H         1 <0>         0.1211 
     37 H5         -4.5084   25.8838   64.8110 H         1 <0>         0.1211 
     38 H6         -1.4674   24.7770   68.0042 H         1 <0>         0.1150 
     39 H7          1.9065   24.4077   70.6789 H         1 <0>         0.1150 
     40 H8         -2.2842   22.5930   68.7187 H         1 <0>         0.1150 
     41 H9          1.0833   22.2267   71.4197 H         1 <0>         0.1150 
     42 H10        -1.7592   23.1651   62.8402 H         1 <0>         0.2618 
     43 H11        -1.7632   26.8632   65.1152 H         1 <0>         0.1550 
     44 H12         0.1702   30.3181   63.4609 H         1 <0>         0.1550 
     45 H13         0.3155   18.2230   71.9867 H         1 <0>         0.0600 
     46 H14         0.6740   18.8398   70.3893 H         1 <0>         0.0600 
     47 H15        -2.6969   18.3535   69.0864 H         1 <0>         0.0600 
     48 H16        -1.0877   18.9158   68.6931 H         1 <0>         0.0600 
     49 H17         0.4493   20.7003   71.9998 H         1 <0>         0.0600 
     50 H18        -1.1350   20.1646   72.4846 H         1 <0>         0.0600 
     51 H19        -3.0894   20.2300   70.5931 H         1 <0>         0.0600 
     52 H20        -2.5519   20.8693   69.0645 H         1 <0>         0.0600 
     53 H21        -3.9554   28.0286   62.1114 H         1 <0>         0.0600 
     54 H22        -3.9472   28.2806   63.8445 H         1 <0>         0.0600 
     55 H23         2.4248   30.1172   65.9626 H         1 <0>         0.3410 
     56 H24        -0.4336   25.9299   67.2157 H         1 <0>         0.3000 
     57 H25        -1.9956   18.0767   71.3627 H         1 <0>         0.2900 
@<TRIPOS>BOND
     1    1   28 1    
     2    1   33 1    
     3    1   34 1    
     4    1   35 1    
     5    2    3 1    
     6    2    8 2    
     7    2   36 1    
     8    3   18 2    
     9    3   37 1    
    10    4    6 ar   
    11    4   16 ar   
    12    4   38 1    
    13    5    7 ar   
    14    5   16 ar   
    15    5   39 1    
    16    6   17 ar   
    17    6   40 1    
    18    7   17 ar   
    19    7   41 1    
    20    8   32 1    
    21    8   42 1    
    22    9   19 ar   
    23    9   27 ar   
    24    9   43 1    
    25   10   20 ar   
    26   10   27 ar   
    27   10   44 1    
    28   11   13 1    
    29   11   28 1    
    30   11   45 1    
    31   11   46 1    
    32   12   14 1    
    33   12   28 1    
    34   12   47 1    
    35   12   48 1    
    36   13   29 1    
    37   13   49 1    
    38   13   50 1    
    39   14   29 1    
    40   14   51 1    
    41   14   52 1    
    42   15   18 1    
    43   15   22 1    
    44   15   53 1    
    45   15   54 1    
    46   16   23 1    
    47   17   29 1    
    48   18   32 1    
    49   19   20 ar   
    50   19   21 ar   
    51   20   24 ar   
    52   21   25 ar   
    53   21   26 1    
    54   22   27 1    
    55   22   30 2    
    56   23   26 am   BACKBONE|DICT|INTERRES
    57   23   31 2    
    58   24   25 ar   
    59   24   55 1    
    60   26   56 1    
    61   28   57 1    
@<TRIPOS>SUBSTRUCTURE
     1 <0>         1 GROUP             0       ****    0 ROOT    
@<TRIPOS>MOLECULE
plk1-ligand
57   61    1
SMALL
USER_CHARGES


@<TRIPOS>ATOM
      1 C1         -1.0496   16.6353   70.1874 C.3       1 <0>         0.0900 
      2 C2         -6.0784   28.1492   63.7517 C.2       1 <0>        -0.0738 
      3 C3         -4.9444   28.2637   62.8953 C.2       1 <0>        -0.0738 
      4 C4          0.9618   23.9649   70.3737 C.ar      1 <0>        -0.1150 
      5 C5         -0.7870   24.0194   68.6859 C.ar      1 <0>        -0.1150 
      6 C6          0.5083   22.7037   70.8053 C.ar      1 <0>        -0.1150 
      7 C7         -1.2411   22.7590   69.1202 C.ar      1 <0>        -0.1150 
      8 C8         -5.9380   27.1600   64.6884 C.2       1 <0>        -0.3255 
      9 C9         -0.8687   27.4817   64.9500 C.ar      1 <0>        -0.1630 
     10 C10        -0.1084   29.5269   64.3317 C.ar      1 <0>        -0.1630 
     11 C11        -0.1497   18.6301   71.1639 C.3       1 <0>         0.1500 
     12 C12        -1.8637   18.7804   69.4957 C.3       1 <0>         0.1500 
     13 C13        -0.4614   20.0545   71.6602 C.3       1 <0>         0.0900 
     14 C14        -2.2229   20.2088   69.9469 C.3       1 <0>         0.0900 
     15 C15        -2.6329   27.1939   62.5046 C.3       1 <0>        -0.0050 
     16 C16         0.3258   24.6312   69.3051 C.ar      1 <0>        -0.1150 
     17 C17        -0.6037   22.0829   70.1860 C.ar      1 <0>         0.2100 
     18 C18        -3.9527   27.3623   63.1901 C.2       1 <0>        -0.1787 
     19 C19        -0.0194   28.0530   65.8522 C.ar      1 <0>        -0.1544 
     20 C20         0.4417   29.2434   65.5228 C.ar      1 <0>         0.0934 
     21 C21         0.5199   27.6867   67.1014 C.ar      1 <0>         0.4230 
     22 C22        -1.6905   28.3856   62.7238 C.2       1 <0>         0.6225 
     23 C23         0.8070   25.9892   68.8766 C.2       1 <0>         0.6150 
     24 N1          1.2728   29.6710   66.5266 N.pl3     1 <0>        -0.1490 
     25 N2          1.3192   28.6990   67.5099 N.2       1 <0>        -0.5310 
     26 N3          0.2319   26.4679   67.7596 N.am      1 <0>        -0.3850 
     27 N4         -0.9290   28.4606   63.9394 N.pl3     1 <0>        -0.0445 
     28 N5         -1.3620   18.0025   70.6314 N.4       1 <0>        -0.1000 
     29 N6         -1.0750   20.8511   70.5920 N.pl3     1 <0>        -0.6300 
     30 O1         -1.5510   29.2889   61.8975 O.2       1 <0>        -0.5000 
     31 O2          1.7104   26.5490   69.4971 O.2       1 <0>        -0.5000 
     32 S1         -4.4045   26.3477   64.5376 S.3       1 <0>         0.0328 
     33 H1         -0.3369   16.6441   69.3614 H         1 <0>         0.0600 
     34 H2         -0.6194   16.0532   71.0032 H         1 <0>         0.0600 
     35 H3         -1.9522   16.1218   69.8541 H         1 <0>         0.0600 
     36 H4         -6.9440   28.7876   63.6523 H         1 <0>         0.1211 
     37 H5         -4.8954   28.9970   62.1036 H         1 <0>         0.1211 
     38 H6          1.8066   24.4201   70.8713 H         1 <0>         0.1150 
     39 H7         -1.3082   24.5114   67.8775 H         1 <0>         0.1150 
     40 H8          1.0259   22.2377   71.6298 H         1 <0>         0.1150 
     41 H9         -2.0846   22.3123   68.6150 H         1 <0>         0.1150 
     42 H10        -6.6367   26.8606   65.4557 H         1 <0>         0.2618 
     43 H11        -1.3967   26.5400   64.9321 H         1 <0>         0.1550 
     44 H12         0.0106   30.4064   63.7150 H         1 <0>         0.1550 
     45 H13         0.2439   18.0377   71.9900 H         1 <0>         0.0600 
     46 H14         0.6295   18.6634   70.4024 H         1 <0>         0.0600 
     47 H15        -2.7484   18.3001   69.0777 H         1 <0>         0.0600 
     48 H16        -1.1204   18.8166   68.6993 H         1 <0>         0.0600 
     49 H17         0.4552   20.5093   72.0359 H         1 <0>         0.0600 
     50 H18        -1.1475   20.0174   72.5064 H         1 <0>         0.0600 
     51 H19        -3.0894   20.1685   70.6069 H         1 <0>         0.0600 
     52 H20        -2.5244   20.8102   69.0893 H         1 <0>         0.0600 
     53 H21        -2.1463   26.2882   62.8673 H         1 <0>         0.0600 
     54 H22        -2.7870   27.0629   61.4332 H         1 <0>         0.0600 
     55 H23         1.7849   30.5404   66.5814 H         1 <0>         0.3410 
     56 H24        -0.4959   25.9057   67.3476 H         1 <0>         0.3000 
     57 H25        -2.0675   17.9722   71.3535 H         1 <0>         0.2900 
@<TRIPOS>BOND
     1    1   28 1    
     2    1   33 1    
     3    1   34 1    
     4    1   35 1    
     5    2    3 1    
     6    2    8 2    
     7    2   36 1    
     8    3   18 2    
     9    3   37 1    
    10    4    6 ar   
    11    4   16 ar   
    12    4   38 1    
    13    5    7 ar   
    14    5   16 ar   
    15    5   39 1    
    16    6   17 ar   
    17    6   40 1    
    18    7   17 ar   
    19    7   41 1    
    20    8   32 1    
    21    8   42 1    
    22    9   19 ar   
    23    9   27 ar   
    24    9   43 1    
    25   10   20 ar   
    26   10   27 ar   
    27   10   44 1    
    28   11   13 1    
    29   11   28 1    
    30   11   45 1    
    31   11   46 1    
    32   12   14 1    
    33   12   28 1    
    34   12   47 1    
    35   12   48 1    
    36   13   29 1    
    37   13   49 1    
    38   13   50 1    
    39   14   29 1    
    40   14   51 1    
    41   14   52 1    
    42   15   18 1    
    43   15   22 1    
    44   15   53 1    
    45   15   54 1    
    46   16   23 1    
    47   17   29 1    
    48   18   32 1    
    49   19   20 ar   
    50   19   21 ar   
    51   20   24 ar   
    52   21   25 ar   
    53   21   26 1    
    54   22   27 1    
    55   22   30 2    
    56   23   26 am   BACKBONE|DICT|INTERRES
    57   23   31 2    
    58   24   25 ar   
    59   24   55 1    
    60   26   56 1    
    61   28   57 1    
@<TRIPOS>SUBSTRUCTURE
     1 <0>         1 GROUP             0       ****    0 ROOT    
