@<TRIPOS>MOLECULE
pnph-ligand
36   38    1
SMALL
USER_CHARGES


@<TRIPOS>ATOM
      1 C1         15.6032   12.7059   56.2066 C.ar      1 <0>        -0.1630 
      2 C2         12.8049    9.2160   55.9958 C.ar      1 <0>         0.4234 
      3 C3         14.2723   11.1376   59.8369 C.3       1 <0>         0.1500 
      4 C4         14.3585   13.3915   60.5927 C.3       1 <0>         0.1500 
      5 C5         13.9460   12.9807   58.1750 C.3       1 <0>         0.2650 
      6 C6         16.1627   10.6866   61.4683 C.3       1 <0>         0.1450 
      7 C7         14.5366   12.2935   56.9760 C.ar      1 <0>        -0.1460 
      8 C8         14.8671   10.7859   55.3131 C.ar      1 <0>        -0.1230 
      9 C9         14.0986   11.0740   56.3860 C.ar      1 <0>        -0.0002 
     10 C10        14.6790    9.5783   54.5010 C.ar      1 <0>         0.6150 
     11 C11        14.6750   11.0627   61.3131 C.3       1 <0>        -0.0600 
     12 C12        14.3388   12.4752   61.8296 C.3       1 <0>         0.2050 
     13 N1         15.8035   11.7772   55.1958 N.pl3     1 <0>        -0.2390 
     14 N2         13.6169    8.8515   54.8997 N.pl3     1 <0>        -0.4225 
     15 N3         13.0392   10.2414   56.7693 N.2       1 <0>        -0.3898 
     16 N4         14.5931   12.5197   59.4222 N.4       1 <0>        -0.1000 
     17 O1         16.5371   10.6546   62.8281 O.3       1 <0>        -0.6830 
     18 O2         13.0391   12.4515   62.3888 O.3       1 <0>        -0.6830 
     19 O3         15.4389    9.2515   53.5958 O.2       1 <0>        -0.5000 
     20 H1         16.2363   13.5805   56.2684 H         1 <0>         0.1550 
     21 H2         11.9653    8.5375   56.1572 H         1 <0>         0.0581 
     22 H3         14.7768   10.3932   59.2193 H         1 <0>         0.0600 
     23 H4         13.1978   10.9683   59.7439 H         1 <0>         0.0600 
     24 H5         13.4187   13.9383   60.4902 H         1 <0>         0.0600 
     25 H6         15.1585   14.1301   60.6574 H         1 <0>         0.0600 
     26 H7         12.8669   12.8203   58.2105 H         1 <0>         0.0600 
     27 H8         14.1056   14.0511   58.0557 H         1 <0>         0.0600 
     28 H9         16.8064   11.3963   60.9473 H         1 <0>         0.0600 
     29 H10        16.3521    9.7034   61.0348 H         1 <0>         0.0600 
     30 H11        14.0832   10.3016   61.8261 H         1 <0>         0.0600 
     31 H12        15.0382   12.8175   62.5943 H         1 <0>         0.0600 
     32 H13        16.4969   11.8291   54.4495 H         1 <0>         0.3170 
     33 H14        13.4397    7.9557   54.4414 H         1 <0>         0.3000 
     34 H15        15.5879   12.5367   59.2516 H         1 <0>         0.2900 
     35 H16        15.9896   10.0349   63.2893 H         1 <0>         0.4180 
     36 H17        12.7928   13.3197   62.6900 H         1 <0>         0.4180 
@<TRIPOS>BOND
     1    1    7 ar   
     2    1   13 ar   
     3    1   20 1    
     4    2   14 ar   
     5    2   15 ar   
     6    2   21 1    
     7    3   11 1    
     8    3   16 1    
     9    3   22 1    
    10    3   23 1    
    11    4   12 1    
    12    4   16 1    
    13    4   24 1    
    14    4   25 1    
    15    5    7 1    
    16    5   16 1    
    17    5   26 1    
    18    5   27 1    
    19    6   11 1    
    20    6   17 1    
    21    6   28 1    
    22    6   29 1    
    23    7    9 ar   
    24    8    9 ar   
    25    8   10 ar   
    26    8   13 ar   
    27    9   15 ar   
    28   10   14 ar   
    29   10   19 2    
    30   11   12 1    
    31   11   30 1    
    32   12   18 1    
    33   12   31 1    
    34   13   32 1    
    35   14   33 1    
    36   16   34 1    
    37   17   35 1    
    38   18   36 1    
@<TRIPOS>SUBSTRUCTURE
     1 <0>         1 GROUP             0       ****    0 ROOT    
@<TRIPOS>MOLECULE
pnph-ligand
36   38    1
SMALL
USER_CHARGES


@<TRIPOS>ATOM
      1 C1         15.6472   12.6882   56.2064 C.ar      1 <0>        -0.1630 
      2 C2         12.8043    9.2297   55.9958 C.ar      1 <0>         0.4234 
      3 C3         14.2388   11.0943   59.8128 C.3       1 <0>         0.1500 
      4 C4         14.4184   13.3293   60.6181 C.3       1 <0>         0.1500 
      5 C5         14.0202   12.9859   58.1889 C.3       1 <0>         0.2650 
      6 C6         16.0117   10.4588   61.5528 C.3       1 <0>         0.1450 
      7 C7         14.5794   12.2893   56.9800 C.ar      1 <0>        -0.1460 
      8 C8         14.8810   10.7821   55.3128 C.ar      1 <0>        -0.1230 
      9 C9         14.1139   11.0813   56.3842 C.ar      1 <0>        -0.0002 
     10 C10        14.6822    9.5762   54.5029 C.ar      1 <0>         0.6150 
     11 C11        14.5824   10.9788   61.3001 C.3       1 <0>        -0.0600 
     12 C12        14.3379   12.3972   61.8407 C.3       1 <0>         0.2050 
     13 N1         15.8340   11.7576   55.1960 N.pl3     1 <0>        -0.2390 
     14 N2         13.6200    8.8515   54.9068 N.pl3     1 <0>        -0.4225 
     15 N3         13.0404   10.2611   56.7624 N.2       1 <0>        -0.3898 
     16 N4         14.6291   12.4682   59.4350 N.4       1 <0>        -0.1000 
     17 O1         16.9933   11.2830   60.9504 O.3       1 <0>        -0.6830 
     18 O2         13.0391   12.4517   62.3957 O.3       1 <0>        -0.6830 
     19 O3         15.4389    9.2495   53.5958 O.2       1 <0>        -0.5000 
     20 H1         16.2906   13.5543   56.2701 H         1 <0>         0.1550 
     21 H2         11.9587    8.5586   56.1569 H         1 <0>         0.0581 
     22 H3         14.7399   10.3410   59.2034 H         1 <0>         0.0600 
     23 H4         13.1631   10.9695   59.6782 H         1 <0>         0.0600 
     24 H5         13.5072   13.9217   60.5103 H         1 <0>         0.0600 
     25 H6         15.2518   14.0277   60.7059 H         1 <0>         0.0600 
     26 H7         12.9344   12.8806   58.2118 H         1 <0>         0.0600 
     27 H8         14.2346   14.0506   58.0920 H         1 <0>         0.0600 
     28 H9         16.1166    9.4442   61.1655 H         1 <0>         0.0600 
     29 H10        16.2032   10.4057   62.6257 H         1 <0>         0.0600 
     30 H11        13.9067   10.2669   61.7779 H         1 <0>         0.0600 
     31 H12        15.0616   12.6737   62.6091 H         1 <0>         0.0600 
     32 H13        16.5270   11.7998   54.4486 H         1 <0>         0.3170 
     33 H14        13.4389    7.9551   54.4515 H         1 <0>         0.3000 
     34 H15        15.6307   12.4274   59.3007 H         1 <0>         0.2900 
     35 H16        17.8421   10.9491   61.2071 H         1 <0>         0.4180 
     36 H17        12.8368   13.3361   62.6818 H         1 <0>         0.4180 
@<TRIPOS>BOND
     1    1    7 ar   
     2    1   13 ar   
     3    1   20 1    
     4    2   14 ar   
     5    2   15 ar   
     6    2   21 1    
     7    3   11 1    
     8    3   16 1    
     9    3   22 1    
    10    3   23 1    
    11    4   12 1    
    12    4   16 1    
    13    4   24 1    
    14    4   25 1    
    15    5    7 1    
    16    5   16 1    
    17    5   26 1    
    18    5   27 1    
    19    6   11 1    
    20    6   17 1    
    21    6   28 1    
    22    6   29 1    
    23    7    9 ar   
    24    8    9 ar   
    25    8   10 ar   
    26    8   13 ar   
    27    9   15 ar   
    28   10   14 ar   
    29   10   19 2    
    30   11   12 1    
    31   11   30 1    
    32   12   18 1    
    33   12   31 1    
    34   13   32 1    
    35   14   33 1    
    36   16   34 1    
    37   17   35 1    
    38   18   36 1    
@<TRIPOS>SUBSTRUCTURE
     1 <0>         1 GROUP             0       ****    0 ROOT    
@<TRIPOS>MOLECULE
pnph-ligand
36   38    1
SMALL
USER_CHARGES


@<TRIPOS>ATOM
      1 C1         15.5841   12.7140   56.2026 C.ar      1 <0>        -0.1630 
      2 C2         12.8052    9.2081   55.9958 C.ar      1 <0>         0.4234 
      3 C3         14.6209   11.3615   59.9541 C.3       1 <0>         0.1500 
      4 C4         14.6050   13.6900   60.4758 C.3       1 <0>         0.1500 
      5 C5         13.9444   12.9841   58.1805 C.3       1 <0>         0.2650 
      6 C6         16.7007   11.3218   61.4468 C.3       1 <0>         0.1450 
      7 C7         14.5257   12.2937   56.9786 C.ar      1 <0>        -0.1460 
      8 C8         14.8636   10.7845   55.3176 C.ar      1 <0>        -0.1230 
      9 C9         14.0956   11.0681   56.3939 C.ar      1 <0>        -0.0002 
     10 C10        14.6788    9.5779   54.5020 C.ar      1 <0>         0.6150 
     11 C11        15.1655   11.4814   61.3830 C.3       1 <0>        -0.0600 
     12 C12        14.7155   12.8975   61.7906 C.3       1 <0>         0.2050 
     13 N1         15.7928   11.7820   55.1973 N.pl3     1 <0>        -0.2390 
     14 N2         13.6156    8.8515   54.8965 N.pl3     1 <0>        -0.4225 
     15 N3         13.0391   10.2298   56.7758 N.2       1 <0>        -0.3898 
     16 N4         14.7677   12.7135   59.3765 N.4       1 <0>        -0.1000 
     17 O1         17.0955    9.9876   61.1984 O.3       1 <0>        -0.6830 
     18 O2         13.4391   12.8292   62.3958 O.3       1 <0>        -0.6830 
     19 O3         15.4391    9.2515   53.5958 O.2       1 <0>        -0.5000 
     20 H1         16.2074   13.5956   56.2581 H         1 <0>         0.1550 
     21 H2         11.9672    8.5272   56.1541 H         1 <0>         0.0581 
     22 H3         15.1291   10.6042   59.3560 H         1 <0>         0.0600 
     23 H4         13.5636   11.0915   59.9926 H         1 <0>         0.0600 
     24 H5         13.6513   14.2174   60.4054 H         1 <0>         0.0600 
     25 H6         15.3946   14.4386   60.3998 H         1 <0>         0.0600 
     26 H7         12.9081   12.6811   58.3363 H         1 <0>         0.0600 
     27 H8         13.9359   14.0534   57.9822 H         1 <0>         0.0600 
     28 H9         17.0666   11.5926   62.4382 H         1 <0>         0.0600 
     29 H10        17.1983   11.9820   60.7358 H         1 <0>         0.0600 
     30 H11        14.7177   10.7277   62.0346 H         1 <0>         0.0600 
     31 H12        15.4052   13.3648   62.4957 H         1 <0>         0.0600 
     32 H13        16.4833   11.8383   54.4486 H         1 <0>         0.3170 
     33 H14        13.4394    7.9571   54.4352 H         1 <0>         0.3000 
     34 H15        15.7292   12.7882   59.0775 H         1 <0>         0.2900 
     35 H16        16.7339    9.6857   60.3790 H         1 <0>         0.4180 
     36 H17        13.1751   13.6856   62.7104 H         1 <0>         0.4180 
@<TRIPOS>BOND
     1    1    7 ar   
     2    1   13 ar   
     3    1   20 1    
     4    2   14 ar   
     5    2   15 ar   
     6    2   21 1    
     7    3   11 1    
     8    3   16 1    
     9    3   22 1    
    10    3   23 1    
    11    4   12 1    
    12    4   16 1    
    13    4   24 1    
    14    4   25 1    
    15    5    7 1    
    16    5   16 1    
    17    5   26 1    
    18    5   27 1    
    19    6   11 1    
    20    6   17 1    
    21    6   28 1    
    22    6   29 1    
    23    7    9 ar   
    24    8    9 ar   
    25    8   10 ar   
    26    8   13 ar   
    27    9   15 ar   
    28   10   14 ar   
    29   10   19 2    
    30   11   12 1    
    31   11   30 1    
    32   12   18 1    
    33   12   31 1    
    34   13   32 1    
    35   14   33 1    
    36   16   34 1    
    37   17   35 1    
    38   18   36 1    
@<TRIPOS>SUBSTRUCTURE
     1 <0>         1 GROUP             0       ****    0 ROOT    
@<TRIPOS>MOLECULE
pnph-ligand
36   38    1
SMALL
USER_CHARGES


@<TRIPOS>ATOM
      1 C1         15.6127   12.7051   56.2028 C.ar      1 <0>        -0.1630 
      2 C2         12.8089    9.2189   55.9958 C.ar      1 <0>         0.4234 
      3 C3         14.5840   11.3316   59.9667 C.3       1 <0>         0.1500 
      4 C4         14.6608   13.6611   60.4863 C.3       1 <0>         0.1500 
      5 C5         13.9831   12.9811   58.1877 C.3       1 <0>         0.2650 
      6 C6         16.6337   11.1728   61.4617 C.3       1 <0>         0.1450 
      7 C7         14.5550   12.2893   56.9825 C.ar      1 <0>        -0.1460 
      8 C8         14.8771   10.7822   55.3178 C.ar      1 <0>        -0.1230 
      9 C9         14.1138   11.0690   56.3956 C.ar      1 <0>        -0.0002 
     10 C10        14.6828    9.5770   54.5034 C.ar      1 <0>         0.6150 
     11 C11        15.1134   11.4328   61.4014 C.3       1 <0>        -0.0600 
     12 C12        14.7232   12.8681   61.8031 C.3       1 <0>         0.2050 
     13 N1         15.8139   11.7729   55.1958 N.pl3     1 <0>        -0.2390 
     14 N2         13.6197    8.8516   54.9008 N.pl3     1 <0>        -0.4225 
     15 N3         13.0515   10.2382   56.7766 N.2       1 <0>        -0.3898 
     16 N4         14.7885   12.6768   59.3887 N.4       1 <0>        -0.1000 
     17 O1         17.0985   11.2733   62.7900 O.3       1 <0>        -0.6830 
     18 O2         13.4390   12.8508   62.3957 O.3       1 <0>        -0.6830 
     19 O3         15.4390    9.2511   53.5959 O.2       1 <0>        -0.5000 
     20 H1         16.2392   13.5841   56.2578 H         1 <0>         0.1550 
     21 H2         11.9631    8.5469   56.1521 H         1 <0>         0.0581 
     22 H3         15.0745   10.5533   59.3800 H         1 <0>         0.0600 
     23 H4         13.5171   11.1003   59.9910 H         1 <0>         0.0600 
     24 H5         13.7341   14.2334   60.4073 H         1 <0>         0.0600 
     25 H6         15.4859   14.3711   60.4171 H         1 <0>         0.0600 
     26 H7         12.9372   12.7057   58.3313 H         1 <0>         0.0600 
     27 H8         14.0048   14.0515   57.9955 H         1 <0>         0.0600 
     28 H9         17.1839   11.8789   60.8393 H         1 <0>         0.0600 
     29 H10        16.8598   10.1713   61.0924 H         1 <0>         0.0600 
     30 H11        14.6217   10.6945   62.0385 H         1 <0>         0.0600 
     31 H12        15.4228   13.3093   62.5148 H         1 <0>         0.0600 
     32 H13        16.5019   11.8262   54.4445 H         1 <0>         0.3170 
     33 H14        13.4394    7.9572   54.4411 H         1 <0>         0.3000 
     34 H15        15.7538   12.7120   59.0955 H         1 <0>         0.2900 
     35 H16        18.0129   11.0299   62.8230 H         1 <0>         0.4180 
     36 H17        13.2141   13.7131   62.7233 H         1 <0>         0.4180 
@<TRIPOS>BOND
     1    1    7 ar   
     2    1   13 ar   
     3    1   20 1    
     4    2   14 ar   
     5    2   15 ar   
     6    2   21 1    
     7    3   11 1    
     8    3   16 1    
     9    3   22 1    
    10    3   23 1    
    11    4   12 1    
    12    4   16 1    
    13    4   24 1    
    14    4   25 1    
    15    5    7 1    
    16    5   16 1    
    17    5   26 1    
    18    5   27 1    
    19    6   11 1    
    20    6   17 1    
    21    6   28 1    
    22    6   29 1    
    23    7    9 ar   
    24    8    9 ar   
    25    8   10 ar   
    26    8   13 ar   
    27    9   15 ar   
    28   10   14 ar   
    29   10   19 2    
    30   11   12 1    
    31   11   30 1    
    32   12   18 1    
    33   12   31 1    
    34   13   32 1    
    35   14   33 1    
    36   16   34 1    
    37   17   35 1    
    38   18   36 1    
@<TRIPOS>SUBSTRUCTURE
     1 <0>         1 GROUP             0       ****    0 ROOT    
@<TRIPOS>MOLECULE
pnph-ligand
36   38    1
SMALL
USER_CHARGES


@<TRIPOS>ATOM
      1 C1         15.6490   12.6961   56.2002 C.ar      1 <0>        -0.1630 
      2 C2         12.8048    9.2362   55.9958 C.ar      1 <0>         0.4234 
      3 C3         14.3656   11.0737   59.7895 C.3       1 <0>         0.1500 
      4 C4         14.6695   13.3050   60.6008 C.3       1 <0>         0.1500 
      5 C5         14.0562   12.9787   58.2055 C.3       1 <0>         0.2650 
      6 C6         16.1604   10.5289   61.5396 C.3       1 <0>         0.1450 
      7 C7         14.5828   12.2981   56.9752 C.ar      1 <0>        -0.1460 
      8 C8         14.8785   10.7887   55.3091 C.ar      1 <0>        -0.1230 
      9 C9         14.1099   11.0930   56.3777 C.ar      1 <0>        -0.0002 
     10 C10        14.6823    9.5788   54.5030 C.ar      1 <0>         0.6150 
     11 C11        14.7013   10.9544   61.2806 C.3       1 <0>        -0.0600 
     12 C12        14.4063   12.3718   61.7936 C.3       1 <0>         0.2050 
     13 N1         15.8350   11.7608   55.1958 N.pl3     1 <0>        -0.2390 
     14 N2         13.6233    8.8515   54.9112 N.pl3     1 <0>        -0.4225 
     15 N3         13.0391   10.2710   56.7589 N.2       1 <0>        -0.3898 
     16 N4         14.7524   12.4475   59.3982 N.4       1 <0>        -0.1000 
     17 O1         16.4187    9.2518   60.9931 O.3       1 <0>        -0.6830 
     18 O2         13.0391   12.4516   62.1395 O.3       1 <0>        -0.6830 
     19 O3         15.4389    9.2513   53.5958 O.2       1 <0>        -0.5000 
     20 H1         16.2998   13.5563   56.2659 H         1 <0>         0.1550 
     21 H2         11.9592    8.5654   56.1581 H         1 <0>         0.0581 
     22 H3         14.8564   10.3205   59.1718 H         1 <0>         0.0600 
     23 H4         13.2894   10.9454   59.6592 H         1 <0>         0.0600 
     24 H5         13.9003   14.0744   60.5085 H         1 <0>         0.0600 
     25 H6         15.6247   13.8183   60.7180 H         1 <0>         0.0600 
     26 H7         12.9763   12.8440   58.2844 H         1 <0>         0.0600 
     27 H8         14.2383   14.0508   58.1073 H         1 <0>         0.0600 
     28 H9         16.3610   10.4963   62.6115 H         1 <0>         0.0600 
     29 H10        16.8611   11.2427   61.1053 H         1 <0>         0.0600 
     30 H11        14.0511   10.2225   61.7635 H         1 <0>         0.0600 
     31 H12        15.0069   12.6360   62.6656 H         1 <0>         0.0600 
     32 H13        16.5306   11.7983   54.4506 H         1 <0>         0.3170 
     33 H14        13.4430    7.9532   54.4595 H         1 <0>         0.3000 
     34 H15        15.7314   12.3988   59.1555 H         1 <0>         0.2900 
     35 H16        15.8751    8.6057   61.4243 H         1 <0>         0.4180 
     36 H17        12.8368   13.3139   62.4835 H         1 <0>         0.4180 
@<TRIPOS>BOND
     1    1    7 ar   
     2    1   13 ar   
     3    1   20 1    
     4    2   14 ar   
     5    2   15 ar   
     6    2   21 1    
     7    3   11 1    
     8    3   16 1    
     9    3   22 1    
    10    3   23 1    
    11    4   12 1    
    12    4   16 1    
    13    4   24 1    
    14    4   25 1    
    15    5    7 1    
    16    5   16 1    
    17    5   26 1    
    18    5   27 1    
    19    6   11 1    
    20    6   17 1    
    21    6   28 1    
    22    6   29 1    
    23    7    9 ar   
    24    8    9 ar   
    25    8   10 ar   
    26    8   13 ar   
    27    9   15 ar   
    28   10   14 ar   
    29   10   19 2    
    30   11   12 1    
    31   11   30 1    
    32   12   18 1    
    33   12   31 1    
    34   13   32 1    
    35   14   33 1    
    36   16   34 1    
    37   17   35 1    
    38   18   36 1    
@<TRIPOS>SUBSTRUCTURE
     1 <0>         1 GROUP             0       ****    0 ROOT    
@<TRIPOS>MOLECULE
pnph-ligand
36   38    1
SMALL
USER_CHARGES


@<TRIPOS>ATOM
      1 C1         15.6072   12.7091   56.2039 C.ar      1 <0>        -0.1630 
      2 C2         12.8038    9.2202   55.9963 C.ar      1 <0>         0.4234 
      3 C3         14.8915   11.3830   59.8730 C.3       1 <0>         0.1500 
      4 C4         14.5023   13.6573   60.5241 C.3       1 <0>         0.1500 
      5 C5         13.9785   12.9858   58.1914 C.3       1 <0>         0.2650 
      6 C6         16.6559   11.5882   61.7379 C.3       1 <0>         0.1450 
      7 C7         14.5490   12.2947   56.9832 C.ar      1 <0>        -0.1460 
      8 C8         14.8699   10.7856   55.3180 C.ar      1 <0>        -0.1230 
      9 C9         14.1041   11.0753   56.3939 C.ar      1 <0>        -0.0002 
     10 C10        14.6801    9.5781   54.5042 C.ar      1 <0>         0.6150 
     11 C11        15.1578   11.4806   61.3815 C.3       1 <0>        -0.0600 
     12 C12        14.3972   12.7570   61.7630 C.3       1 <0>         0.2050 
     13 N1         15.8055   11.7770   55.1967 N.pl3     1 <0>        -0.2390 
     14 N2         13.6180    8.8517   54.9033 N.pl3     1 <0>        -0.4225 
     15 N3         13.0391   10.2448   56.7722 N.2       1 <0>        -0.3898 
     16 N4         14.8342   12.7775   59.3793 N.4       1 <0>        -0.1000 
     17 O1         17.3650   10.4460   61.3093 O.3       1 <0>        -0.6830 
     18 O2         13.0357   12.4556   61.9959 O.3       1 <0>        -0.6830 
     19 O3         15.4379    9.2514   53.5961 O.2       1 <0>        -0.5000 
     20 H1         16.2387   13.5847   56.2602 H         1 <0>         0.1550 
     21 H2         11.9609    8.5451   56.1540 H         1 <0>         0.0581 
     22 H3         15.6344   10.7927   59.3349 H         1 <0>         0.0600 
     23 H4         13.9251   10.8994   59.7176 H         1 <0>         0.0600 
     24 H5         13.5938   14.2403   60.3627 H         1 <0>         0.0600 
     25 H6         15.3199   14.3688   60.6437 H         1 <0>         0.0600 
     26 H7         12.9619   12.6375   58.3811 H         1 <0>         0.0600 
     27 H8         13.9130   14.0514   57.9793 H         1 <0>         0.0600 
     28 H9         16.7716   11.6775   62.8191 H         1 <0>         0.0600 
     29 H10        17.1115   12.4735   61.2941 H         1 <0>         0.0600 
     30 H11        14.7493   10.6097   61.8975 H         1 <0>         0.0600 
     31 H12        14.8018   13.2350   62.6570 H         1 <0>         0.0600 
     32 H13        16.4958   11.8280   54.4474 H         1 <0>         0.3170 
     33 H14        13.4393    7.9561   54.4456 H         1 <0>         0.3000 
     34 H15        15.7744   13.0152   59.0993 H         1 <0>         0.2900 
     35 H16        18.1778   10.3936   61.7910 H         1 <0>         0.4180 
     36 H17        12.5961   13.2299   62.3263 H         1 <0>         0.4180 
@<TRIPOS>BOND
     1    1    7 ar   
     2    1   13 ar   
     3    1   20 1    
     4    2   14 ar   
     5    2   15 ar   
     6    2   21 1    
     7    3   11 1    
     8    3   16 1    
     9    3   22 1    
    10    3   23 1    
    11    4   12 1    
    12    4   16 1    
    13    4   24 1    
    14    4   25 1    
    15    5    7 1    
    16    5   16 1    
    17    5   26 1    
    18    5   27 1    
    19    6   11 1    
    20    6   17 1    
    21    6   28 1    
    22    6   29 1    
    23    7    9 ar   
    24    8    9 ar   
    25    8   10 ar   
    26    8   13 ar   
    27    9   15 ar   
    28   10   14 ar   
    29   10   19 2    
    30   11   12 1    
    31   11   30 1    
    32   12   18 1    
    33   12   31 1    
    34   13   32 1    
    35   14   33 1    
    36   16   34 1    
    37   17   35 1    
    38   18   36 1    
@<TRIPOS>SUBSTRUCTURE
     1 <0>         1 GROUP             0       ****    0 ROOT    
@<TRIPOS>MOLECULE
pnph-ligand
36   38    1
SMALL
USER_CHARGES


@<TRIPOS>ATOM
      1 C1         15.6090   12.7123   56.1784 C.ar      1 <0>        -0.1630 
      2 C2         12.8061    9.2241   55.9958 C.ar      1 <0>         0.4234 
      3 C3         13.9338   11.4158   59.9609 C.3       1 <0>         0.1500 
      4 C4         14.4692   13.6816   60.3934 C.3       1 <0>         0.1500 
      5 C5         13.8972   13.0571   58.0750 C.3       1 <0>         0.2650 
      6 C6         15.1364   10.3959   61.9958 C.3       1 <0>         0.1450 
      7 C7         14.5230   12.3217   56.9306 C.ar      1 <0>        -0.1460 
      8 C8         14.8807   10.7783   55.3133 C.ar      1 <0>        -0.1230 
      9 C9         14.1026   11.0824   56.3743 C.ar      1 <0>        -0.0002 
     10 C10        14.6851    9.5723   54.5048 C.ar      1 <0>         0.6150 
     11 C11        14.2179   11.5199   61.4744 C.3       1 <0>        -0.0600 
     12 C12        14.7895   12.9380   61.6835 C.3       1 <0>         0.2050 
     13 N1         15.8268   11.7600   55.1958 N.pl3     1 <0>        -0.2390 
     14 N2         13.6196    8.8515   54.9039 N.pl3     1 <0>        -0.4225 
     15 N3         13.0391   10.2568   56.7606 N.2       1 <0>        -0.3898 
     16 N4         14.4990   12.6408   59.3554 N.4       1 <0>        -0.1000 
     17 O1         16.3491   10.3580   61.2663 O.3       1 <0>        -0.6830 
     18 O2         14.2391   13.6126   62.7958 O.3       1 <0>        -0.6830 
     19 O3         15.4391    9.2470   53.5958 O.2       1 <0>        -0.5000 
     20 H1         16.2371   13.5909   56.2287 H         1 <0>         0.1550 
     21 H2         11.9662    8.5470   56.1609 H         1 <0>         0.0581 
     22 H3         14.3593   10.5232   59.4995 H         1 <0>         0.0600 
     23 H4         12.8560   11.3760   59.7964 H         1 <0>         0.0600 
     24 H5         13.4669   14.1130   60.4367 H         1 <0>         0.0600 
     25 H6         15.1771   14.4860   60.1884 H         1 <0>         0.0600 
     26 H7         12.8137   12.9300   58.0726 H         1 <0>         0.0600 
     27 H8         14.0902   14.1136   57.9183 H         1 <0>         0.0600 
     28 H9         14.6392    9.4291   61.9068 H         1 <0>         0.0600 
     29 H10        15.3645   10.5386   63.0528 H         1 <0>         0.0600 
     30 H11        13.2632   11.4398   61.9955 H         1 <0>         0.0600 
     31 H12        15.8727   12.8943   61.8076 H         1 <0>         0.0600 
     32 H13        16.5261   11.7996   54.4542 H         1 <0>         0.3170 
     33 H14        13.4391    7.9558   54.4470 H         1 <0>         0.3000 
     34 H15        15.4745   12.4435   59.1792 H         1 <0>         0.2900 
     35 H16        16.8580    9.6213   61.5746 H         1 <0>         0.4180 
     36 H17        13.3107   13.7641   62.6750 H         1 <0>         0.4180 
@<TRIPOS>BOND
     1    1    7 ar   
     2    1   13 ar   
     3    1   20 1    
     4    2   14 ar   
     5    2   15 ar   
     6    2   21 1    
     7    3   11 1    
     8    3   16 1    
     9    3   22 1    
    10    3   23 1    
    11    4   12 1    
    12    4   16 1    
    13    4   24 1    
    14    4   25 1    
    15    5    7 1    
    16    5   16 1    
    17    5   26 1    
    18    5   27 1    
    19    6   11 1    
    20    6   17 1    
    21    6   28 1    
    22    6   29 1    
    23    7    9 ar   
    24    8    9 ar   
    25    8   10 ar   
    26    8   13 ar   
    27    9   15 ar   
    28   10   14 ar   
    29   10   19 2    
    30   11   12 1    
    31   11   30 1    
    32   12   18 1    
    33   12   31 1    
    34   13   32 1    
    35   14   33 1    
    36   16   34 1    
    37   17   35 1    
    38   18   36 1    
@<TRIPOS>SUBSTRUCTURE
     1 <0>         1 GROUP             0       ****    0 ROOT    
@<TRIPOS>MOLECULE
pnph-ligand
36   38    1
SMALL
USER_CHARGES


@<TRIPOS>ATOM
      1 C1         15.6144   12.7175   56.1915 C.ar      1 <0>        -0.1630 
      2 C2         12.8002    9.2422   55.9959 C.ar      1 <0>         0.4234 
      3 C3         14.9152   11.4036   59.9125 C.3       1 <0>         0.1500 
      4 C4         14.8317   13.6963   60.4396 C.3       1 <0>         0.1500 
      5 C5         14.0203   12.9843   58.1968 C.3       1 <0>         0.2650 
      6 C6         17.1672   11.0401   61.0870 C.3       1 <0>         0.1450 
      7 C7         14.5589   12.3045   56.9724 C.ar      1 <0>        -0.1460 
      8 C8         14.8762   10.7896   55.3148 C.ar      1 <0>        -0.1230 
      9 C9         14.1078   11.0883   56.3854 C.ar      1 <0>        -0.0002 
     10 C10        14.6829    9.5786   54.5058 C.ar      1 <0>         0.6150 
     11 C11        15.7117   11.5403   61.2194 C.3       1 <0>        -0.0600 
     12 C12        15.6181   13.0418   61.5819 C.3       1 <0>         0.2050 
     13 N1         15.8177   11.7757   55.1959 N.pl3     1 <0>        -0.2390 
     14 N2         13.6221    8.8515   54.9146 N.pl3     1 <0>        -0.4225 
     15 N3         13.0399   10.2686   56.7676 N.2       1 <0>        -0.3898 
     16 N4         14.9489   12.7537   59.3188 N.4       1 <0>        -0.1000 
     17 O1         17.8387   11.6513   59.9957 O.3       1 <0>        -0.6830 
     18 O2         14.9313   13.2518   62.7958 O.3       1 <0>        -0.6830 
     19 O3         15.4390    9.2510   53.5959 O.2       1 <0>        -0.5000 
     20 H1         16.2450   13.5930   56.2462 H         1 <0>         0.1550 
     21 H2         11.9471    8.5791   56.1516 H         1 <0>         0.0581 
     22 H3         15.3174   10.6454   59.2397 H         1 <0>         0.0600 
     23 H4         13.8825   11.1281   60.1364 H         1 <0>         0.0600 
     24 H5         13.7767   13.8039   60.7014 H         1 <0>         0.0600 
     25 H6         15.2172   14.6839   60.1857 H         1 <0>         0.0600 
     26 H7         13.0164   12.6263   58.4323 H         1 <0>         0.0600 
     27 H8         13.9425   14.0518   57.9950 H         1 <0>         0.0600 
     28 H9         17.1873    9.9576   60.9501 H         1 <0>         0.0600 
     29 H10        17.7203   11.2497   62.0044 H         1 <0>         0.0600 
     30 H11        15.2293   10.9353   61.9898 H         1 <0>         0.0600 
     31 H12        16.6115   13.4875   61.6540 H         1 <0>         0.0600 
     32 H13        16.5082   11.8247   54.4477 H         1 <0>         0.3170 
     33 H14        13.4397    7.9539   54.4624 H         1 <0>         0.3000 
     34 H15        15.8820   12.8733   58.9522 H         1 <0>         0.2900 
     35 H16        17.6884   11.1311   59.2191 H         1 <0>         0.4180 
     36 H17        15.4435   12.8990   63.5102 H         1 <0>         0.4180 
@<TRIPOS>BOND
     1    1    7 ar   
     2    1   13 ar   
     3    1   20 1    
     4    2   14 ar   
     5    2   15 ar   
     6    2   21 1    
     7    3   11 1    
     8    3   16 1    
     9    3   22 1    
    10    3   23 1    
    11    4   12 1    
    12    4   16 1    
    13    4   24 1    
    14    4   25 1    
    15    5    7 1    
    16    5   16 1    
    17    5   26 1    
    18    5   27 1    
    19    6   11 1    
    20    6   17 1    
    21    6   28 1    
    22    6   29 1    
    23    7    9 ar   
    24    8    9 ar   
    25    8   10 ar   
    26    8   13 ar   
    27    9   15 ar   
    28   10   14 ar   
    29   10   19 2    
    30   11   12 1    
    31   11   30 1    
    32   12   18 1    
    33   12   31 1    
    34   13   32 1    
    35   14   33 1    
    36   16   34 1    
    37   17   35 1    
    38   18   36 1    
@<TRIPOS>SUBSTRUCTURE
     1 <0>         1 GROUP             0       ****    0 ROOT    
@<TRIPOS>MOLECULE
pnph-ligand
36   38    1
SMALL
USER_CHARGES


@<TRIPOS>ATOM
      1 C1         15.5838   12.7247   56.1807 C.ar      1 <0>        -0.1630 
      2 C2         12.8077    9.2158   55.9958 C.ar      1 <0>         0.4234 
      3 C3         14.0008   11.4058   59.9796 C.3       1 <0>         0.1500 
      4 C4         14.5501   13.6567   60.4045 C.3       1 <0>         0.1500 
      5 C5         13.8867   13.0417   58.0981 C.3       1 <0>         0.2650 
      6 C6         15.6992   10.4335   61.5827 C.3       1 <0>         0.1450 
      7 C7         14.5053   12.3223   56.9376 C.ar      1 <0>        -0.1460 
      8 C8         14.8708   10.7847   55.3133 C.ar      1 <0>        -0.1230 
      9 C9         14.0933   11.0814   56.3772 C.ar      1 <0>        -0.0002 
     10 C10        14.6827    9.5764   54.5035 C.ar      1 <0>         0.6150 
     11 C11        14.5218   11.4213   61.4266 C.3       1 <0>        -0.0600 
     12 C12        14.9078   12.9005   61.6850 C.3       1 <0>         0.2050 
     13 N1         15.8076   11.7755   55.1958 N.pl3     1 <0>        -0.2390 
     14 N2         13.6192    8.8515   54.9002 N.pl3     1 <0>        -0.4225 
     15 N3         13.0391   10.2454   56.7653 N.2       1 <0>        -0.3898 
     16 N4         14.5401   12.6289   59.3537 N.4       1 <0>        -0.1000 
     17 O1         16.2370   10.4781   62.8851 O.3       1 <0>        -0.6830 
     18 O2         14.2391   13.4785   62.7919 O.3       1 <0>        -0.6830 
     19 O3         15.4391    9.2515   53.5958 O.2       1 <0>        -0.5000 
     20 H1         16.2063   13.6074   56.2317 H         1 <0>         0.1550 
     21 H2         11.9714    8.5341   56.1606 H         1 <0>         0.0581 
     22 H3         14.2861   10.5092   59.4267 H         1 <0>         0.0600 
     23 H4         12.9106   11.4483   59.9871 H         1 <0>         0.0600 
     24 H5         13.5519   14.0935   60.4786 H         1 <0>         0.0600 
     25 H6         15.2540   14.4605   60.1840 H         1 <0>         0.0600 
     26 H7         12.8081   12.8799   58.1267 H         1 <0>         0.0600 
     27 H8         14.0429   14.1051   57.9451 H         1 <0>         0.0600 
     28 H9         16.4932   10.6528   60.8679 H         1 <0>         0.0600 
     29 H10        15.3616    9.4148   61.3842 H         1 <0>         0.0600 
     30 H11        13.7192   11.1064   62.0943 H         1 <0>         0.0600 
     31 H12        15.9821   12.9777   61.8605 H         1 <0>         0.0600 
     32 H13        16.5055   11.8223   54.4534 H         1 <0>         0.3170 
     33 H14        13.4391    7.9571   54.4403 H         1 <0>         0.3000 
     34 H15        15.5067   12.4415   59.1282 H         1 <0>         0.2900 
     35 H16        16.8415    9.7593   62.9967 H         1 <0>         0.4180 
     36 H17        13.3296   13.6515   62.5889 H         1 <0>         0.4180 
@<TRIPOS>BOND
     1    1    7 ar   
     2    1   13 ar   
     3    1   20 1    
     4    2   14 ar   
     5    2   15 ar   
     6    2   21 1    
     7    3   11 1    
     8    3   16 1    
     9    3   22 1    
    10    3   23 1    
    11    4   12 1    
    12    4   16 1    
    13    4   24 1    
    14    4   25 1    
    15    5    7 1    
    16    5   16 1    
    17    5   26 1    
    18    5   27 1    
    19    6   11 1    
    20    6   17 1    
    21    6   28 1    
    22    6   29 1    
    23    7    9 ar   
    24    8    9 ar   
    25    8   10 ar   
    26    8   13 ar   
    27    9   15 ar   
    28   10   14 ar   
    29   10   19 2    
    30   11   12 1    
    31   11   30 1    
    32   12   18 1    
    33   12   31 1    
    34   13   32 1    
    35   14   33 1    
    36   16   34 1    
    37   17   35 1    
    38   18   36 1    
@<TRIPOS>SUBSTRUCTURE
     1 <0>         1 GROUP             0       ****    0 ROOT    
@<TRIPOS>MOLECULE
pnph-ligand
36   38    1
SMALL
USER_CHARGES


@<TRIPOS>ATOM
      1 C1         15.5845   12.7157   56.1871 C.ar      1 <0>        -0.1630 
      2 C2         12.8086    9.2059   55.9958 C.ar      1 <0>         0.4234 
      3 C3         14.7762   11.4139   59.8763 C.3       1 <0>         0.1500 
      4 C4         14.4020   13.7089   60.4263 C.3       1 <0>         0.1500 
      5 C5         13.9072   12.9897   58.1302 C.3       1 <0>         0.2650 
      6 C6         15.7872   10.6581   62.1421 C.3       1 <0>         0.1450 
      7 C7         14.5166   12.2993   56.9510 C.ar      1 <0>        -0.1460 
      8 C8         14.8697   10.7795   55.3128 C.ar      1 <0>        -0.1230 
      9 C9         14.0976   11.0664   56.3822 C.ar      1 <0>        -0.0002 
     10 C10        14.6803    9.5754   54.5005 C.ar      1 <0>         0.6150 
     11 C11        14.7518   11.5376   61.4130 C.3       1 <0>        -0.0600 
     12 C12        14.9593   13.0370   61.6698 C.3       1 <0>         0.2050 
     13 N1         15.8043   11.7727   55.1958 N.pl3     1 <0>        -0.2390 
     14 N2         13.6153    8.8515   54.8935 N.pl3     1 <0>        -0.4225 
     15 N3         13.0431   10.2300   56.7706 N.2       1 <0>        -0.3898 
     16 N4         14.7419   12.7936   59.3288 N.4       1 <0>        -0.1000 
     17 O1         15.4390    9.2902   62.0928 O.3       1 <0>        -0.6830 
     18 O2         14.2391   13.4699   62.7958 O.3       1 <0>        -0.6830 
     19 O3         15.4391    9.2514   53.5958 O.2       1 <0>        -0.5000 
     20 H1         16.2056   13.5991   56.2403 H         1 <0>         0.1550 
     21 H2         11.9737    8.5222   56.1597 H         1 <0>         0.0581 
     22 H3         15.6748   10.9118   59.5151 H         1 <0>         0.0600 
     23 H4         13.9205   10.8259   59.5393 H         1 <0>         0.0600 
     24 H5         13.3151   13.7934   60.4992 H         1 <0>         0.0600 
     25 H6         14.8094   14.7081   60.2664 H         1 <0>         0.0600 
     26 H7         12.8897   12.6333   58.2986 H         1 <0>         0.0600 
     27 H8         13.8391   14.0515   57.9089 H         1 <0>         0.0600 
     28 H9         15.8392   10.9437   63.1939 H         1 <0>         0.0600 
     29 H10        16.7863   10.7968   61.7274 H         1 <0>         0.0600 
     30 H11        13.7505   11.2650   61.7542 H         1 <0>         0.0600 
     31 H12        16.0201   13.2684   61.7824 H         1 <0>         0.0600 
     32 H13        16.4985   11.8242   54.4502 H         1 <0>         0.3170 
     33 H14        13.4391    7.9572   54.4321 H         1 <0>         0.3000 
     34 H15        15.6902   13.0120   59.0589 H         1 <0>         0.2900 
     35 H16        15.3904    8.9907   61.1972 H         1 <0>         0.4180 
     36 H17        14.4170   14.3848   62.9609 H         1 <0>         0.4180 
@<TRIPOS>BOND
     1    1    7 ar   
     2    1   13 ar   
     3    1   20 1    
     4    2   14 ar   
     5    2   15 ar   
     6    2   21 1    
     7    3   11 1    
     8    3   16 1    
     9    3   22 1    
    10    3   23 1    
    11    4   12 1    
    12    4   16 1    
    13    4   24 1    
    14    4   25 1    
    15    5    7 1    
    16    5   16 1    
    17    5   26 1    
    18    5   27 1    
    19    6   11 1    
    20    6   17 1    
    21    6   28 1    
    22    6   29 1    
    23    7    9 ar   
    24    8    9 ar   
    25    8   10 ar   
    26    8   13 ar   
    27    9   15 ar   
    28   10   14 ar   
    29   10   19 2    
    30   11   12 1    
    31   11   30 1    
    32   12   18 1    
    33   12   31 1    
    34   13   32 1    
    35   14   33 1    
    36   16   34 1    
    37   17   35 1    
    38   18   36 1    
@<TRIPOS>SUBSTRUCTURE
     1 <0>         1 GROUP             0       ****    0 ROOT    
@<TRIPOS>MOLECULE
pnph-ligand
36   38    1
SMALL
USER_CHARGES


@<TRIPOS>ATOM
      1 C1         15.5868   12.7153   56.1857 C.ar      1 <0>        -0.1630 
      2 C2         12.8067    9.2093   55.9958 C.ar      1 <0>         0.4234 
      3 C3         14.7110   11.4777   59.9149 C.3       1 <0>         0.1500 
      4 C4         14.3619   13.7904   60.3967 C.3       1 <0>         0.1500 
      5 C5         13.8929   13.0098   58.1116 C.3       1 <0>         0.2650 
      6 C6         15.7384   10.7790   62.1748 C.3       1 <0>         0.1450 
      7 C7         14.5152   12.3039   56.9475 C.ar      1 <0>        -0.1460 
      8 C8         14.8716   10.7784   55.3147 C.ar      1 <0>        -0.1230 
      9 C9         14.0978   11.0685   56.3825 C.ar      1 <0>        -0.0002 
     10 C10        14.6813    9.5746   54.5023 C.ar      1 <0>         0.6150 
     11 C11        14.6944   11.6474   61.4481 C.3       1 <0>        -0.0600 
     12 C12        14.9092   13.1514   61.6624 C.3       1 <0>         0.2050 
     13 N1         15.8070   11.7706   55.1958 N.pl3     1 <0>        -0.2390 
     14 N2         13.6159    8.8515   54.8960 N.pl3     1 <0>        -0.4225 
     15 N3         13.0391   10.2358   56.7682 N.2       1 <0>        -0.3898 
     16 N4         14.7058   12.8400   59.3286 N.4       1 <0>        -0.1000 
     17 O1         15.4391    9.4149   61.9835 O.3       1 <0>        -0.6830 
     18 O2         14.2391   13.6515   62.7965 O.3       1 <0>        -0.6830 
     19 O3         15.4391    9.2515   53.5958 O.2       1 <0>        -0.5000 
     20 H1         16.2069   13.5996   56.2361 H         1 <0>         0.1550 
     21 H2         11.9712    8.5264   56.1595 H         1 <0>         0.0581 
     22 H3         15.5960   10.9438   59.5657 H         1 <0>         0.0600 
     23 H4         13.8422   10.8978   59.5976 H         1 <0>         0.0600 
     24 H5         13.2756   13.8849   60.4589 H         1 <0>         0.0600 
     25 H6         14.7784   14.7816   60.2121 H         1 <0>         0.0600 
     26 H7         12.8699   12.6644   58.2689 H         1 <0>         0.0600 
     27 H8         13.8391   14.0657   57.8695 H         1 <0>         0.0600 
     28 H9         15.7398   10.9935   63.2429 H         1 <0>         0.0600 
     29 H10        16.7452   10.9819   61.8077 H         1 <0>         0.0600 
     30 H11        13.6971   11.3793   61.8028 H         1 <0>         0.0600 
     31 H12        15.9753   13.3690   61.7493 H         1 <0>         0.0600 
     32 H13        16.5016   11.8203   54.4506 H         1 <0>         0.3170 
     33 H14        13.4391    7.9569   54.4355 H         1 <0>         0.3000 
     34 H15        15.6617   13.0370   59.0690 H         1 <0>         0.2900 
     35 H16        16.0174    8.8878   62.5152 H         1 <0>         0.4180 
     36 H17        13.3004   13.6515   62.6624 H         1 <0>         0.4180 
@<TRIPOS>BOND
     1    1    7 ar   
     2    1   13 ar   
     3    1   20 1    
     4    2   14 ar   
     5    2   15 ar   
     6    2   21 1    
     7    3   11 1    
     8    3   16 1    
     9    3   22 1    
    10    3   23 1    
    11    4   12 1    
    12    4   16 1    
    13    4   24 1    
    14    4   25 1    
    15    5    7 1    
    16    5   16 1    
    17    5   26 1    
    18    5   27 1    
    19    6   11 1    
    20    6   17 1    
    21    6   28 1    
    22    6   29 1    
    23    7    9 ar   
    24    8    9 ar   
    25    8   10 ar   
    26    8   13 ar   
    27    9   15 ar   
    28   10   14 ar   
    29   10   19 2    
    30   11   12 1    
    31   11   30 1    
    32   12   18 1    
    33   12   31 1    
    34   13   32 1    
    35   14   33 1    
    36   16   34 1    
    37   17   35 1    
    38   18   36 1    
@<TRIPOS>SUBSTRUCTURE
     1 <0>         1 GROUP             0       ****    0 ROOT    
@<TRIPOS>MOLECULE
pnph-ligand
36   38    1
SMALL
USER_CHARGES


@<TRIPOS>ATOM
      1 C1         15.6042   12.6980   56.2370 C.ar      1 <0>        -0.1630 
      2 C2         12.8081    9.2080   55.9957 C.ar      1 <0>         0.4234 
      3 C3         15.7545   12.8128   59.8740 C.3       1 <0>         0.1500 
      4 C4         14.1607   11.0794   59.8468 C.3       1 <0>         0.1500 
      5 C5         13.8993   12.9776   58.1833 C.3       1 <0>         0.2650 
      6 C6         15.5936   12.9478   62.4217 C.3       1 <0>         0.1450 
      7 C7         14.5333   12.2823   57.0002 C.ar      1 <0>        -0.1460 
      8 C8         14.8730   10.7833   55.3236 C.ar      1 <0>        -0.1230 
      9 C9         14.1009   11.0670   56.3960 C.ar      1 <0>        -0.0002 
     10 C10        14.6825    9.5789   54.5038 C.ar      1 <0>         0.6150 
     11 C11        15.9537   12.0695   61.2014 C.3       1 <0>        -0.0600 
     12 C12        15.0568   10.8159   61.0725 C.3       1 <0>         0.2050 
     13 N1         15.8087   11.7779   55.2158 N.pl3     1 <0>        -0.2390 
     14 N2         13.6193    8.8515   54.8977 N.pl3     1 <0>        -0.4225 
     15 N3         13.0391   10.2331   56.7694 N.2       1 <0>        -0.3898 
     16 N4         14.3627   12.5052   59.5133 N.4       1 <0>        -0.1000 
     17 O1         14.2419   13.3785   62.3705 O.3       1 <0>        -0.6830 
     18 O2         15.8478    9.6609   60.8649 O.3       1 <0>        -0.6830 
     19 O3         15.4390    9.2515   53.5959 O.2       1 <0>        -0.5000 
     20 H1         16.2312   13.5760   56.3050 H         1 <0>         0.1550 
     21 H2         11.9719    8.5254   56.1567 H         1 <0>         0.0581 
     22 H3         15.9332   13.8860   59.9509 H         1 <0>         0.0600 
     23 H4         16.4282   12.4088   59.1168 H         1 <0>         0.0600 
     24 H5         14.4832   10.4482   59.0196 H         1 <0>         0.0600 
     25 H6         13.1104   10.8611   60.0416 H         1 <0>         0.0600 
     26 H7         12.8189   12.8438   58.1206 H         1 <0>         0.0600 
     27 H8         14.0784   14.0501   58.1011 H         1 <0>         0.0600 
     28 H9         16.2416   13.8246   62.4570 H         1 <0>         0.0600 
     29 H10        15.7661   12.3981   63.3479 H         1 <0>         0.0600 
     30 H11        17.0031   11.7864   61.3035 H         1 <0>         0.0600 
     31 H12        14.4553   10.6653   61.9708 H         1 <0>         0.0600 
     32 H13        16.5024   11.8374   54.4705 H         1 <0>         0.3170 
     33 H14        13.4398    7.9591   54.4337 H         1 <0>         0.3000 
     34 H15        13.8217   13.0091   60.2053 H         1 <0>         0.2900 
     35 H16        14.0824   13.9887   63.0799 H         1 <0>         0.4180 
     36 H17        15.2882    8.8953   60.8794 H         1 <0>         0.4180 
@<TRIPOS>BOND
     1    1    7 ar   
     2    1   13 ar   
     3    1   20 1    
     4    2   14 ar   
     5    2   15 ar   
     6    2   21 1    
     7    3   11 1    
     8    3   16 1    
     9    3   22 1    
    10    3   23 1    
    11    4   12 1    
    12    4   16 1    
    13    4   24 1    
    14    4   25 1    
    15    5    7 1    
    16    5   16 1    
    17    5   26 1    
    18    5   27 1    
    19    6   11 1    
    20    6   17 1    
    21    6   28 1    
    22    6   29 1    
    23    7    9 ar   
    24    8    9 ar   
    25    8   10 ar   
    26    8   13 ar   
    27    9   15 ar   
    28   10   14 ar   
    29   10   19 2    
    30   11   12 1    
    31   11   30 1    
    32   12   18 1    
    33   12   31 1    
    34   13   32 1    
    35   14   33 1    
    36   16   34 1    
    37   17   35 1    
    38   18   36 1    
@<TRIPOS>SUBSTRUCTURE
     1 <0>         1 GROUP             0       ****    0 ROOT    
@<TRIPOS>MOLECULE
pnph-ligand
36   38    1
SMALL
USER_CHARGES


@<TRIPOS>ATOM
      1 C1         15.9336   13.6202   60.3191 C.ar      1 <0>        -0.1630 
      2 C2         11.4466   13.6517   60.3972 C.ar      1 <0>         0.4234 
      3 C3         17.2725   10.7388   61.6130 C.3       1 <0>         0.1500 
      4 C4         15.4342    9.3165   61.9779 C.3       1 <0>         0.1500 
      5 C5         15.1992   11.1338   60.2714 C.3       1 <0>         0.2650 
      6 C6         17.7355   10.9131   64.1159 C.3       1 <0>         0.1450 
      7 C7         14.9771   12.6264   60.3109 C.ar      1 <0>        -0.1460 
      8 C8         13.9442   14.6508   60.3966 C.ar      1 <0>        -0.1230 
      9 C9         13.7272   13.3146   60.3582 C.ar      1 <0>        -0.0002 
     10 C10        12.8556   15.6356   60.4137 C.ar      1 <0>         0.6150 
     11 C11        17.6208    9.9758   62.8935 C.3       1 <0>        -0.0600 
     12 C12        16.5055    8.9138   63.0089 C.3       1 <0>         0.2050 
     13 N1         15.3013   14.8518   60.3958 N.pl3     1 <0>        -0.2390 
     14 N2         11.6369   15.0520   60.4273 N.pl3     1 <0>        -0.4225 
     15 N3         12.4252   12.7864   60.3574 N.2       1 <0>        -0.3898 
     16 N4         15.8006   10.6769   61.5433 N.4       1 <0>        -0.1000 
     17 O1         16.6392   11.8052   64.2011 O.3       1 <0>        -0.6830 
     18 O2         17.0390    7.6442   62.6917 O.3       1 <0>        -0.6830 
     19 O3         13.0392   16.8518   60.3960 O.2       1 <0>        -0.5000 
     20 H1         17.0117   13.5724   60.2834 H         1 <0>         0.1550 
     21 H2         10.3966   13.3565   60.4091 H         1 <0>         0.0581 
     22 H3         17.6483   11.7612   61.6223 H         1 <0>         0.0600 
     23 H4         17.7023   10.2279   60.7496 H         1 <0>         0.0600 
     24 H5         15.4440    8.6457   61.1159 H         1 <0>         0.0600 
     25 H6         14.4298    9.2981   62.4040 H         1 <0>         0.0600 
     26 H7         15.8169   10.8590   59.4151 H         1 <0>         0.0600 
     27 H8         14.2313   10.6504   60.1294 H         1 <0>         0.0600 
     28 H9         18.6413   11.5136   64.0273 H         1 <0>         0.0600 
     29 H10        17.8272   10.3455   65.0427 H         1 <0>         0.0600 
     30 H11        18.5937    9.4954   62.7737 H         1 <0>         0.0600 
     31 H12        16.0835    8.8840   64.0150 H         1 <0>         0.0600 
     32 H13        15.7604   15.7525   60.4074 H         1 <0>         0.3170 
     33 H14        10.8157   15.6423   60.4599 H         1 <0>         0.3000 
     34 H15        15.4696   11.2987   62.2695 H         1 <0>         0.2900 
     35 H16        15.9845   11.4603   64.7973 H         1 <0>         0.4180 
     36 H17        16.3343    7.0468   62.4602 H         1 <0>         0.4180 
@<TRIPOS>BOND
     1    1    7 ar   
     2    1   13 ar   
     3    1   20 1    
     4    2   14 ar   
     5    2   15 ar   
     6    2   21 1    
     7    3   11 1    
     8    3   16 1    
     9    3   22 1    
    10    3   23 1    
    11    4   12 1    
    12    4   16 1    
    13    4   24 1    
    14    4   25 1    
    15    5    7 1    
    16    5   16 1    
    17    5   26 1    
    18    5   27 1    
    19    6   11 1    
    20    6   17 1    
    21    6   28 1    
    22    6   29 1    
    23    7    9 ar   
    24    8    9 ar   
    25    8   10 ar   
    26    8   13 ar   
    27    9   15 ar   
    28   10   14 ar   
    29   10   19 2    
    30   11   12 1    
    31   11   30 1    
    32   12   18 1    
    33   12   31 1    
    34   13   32 1    
    35   14   33 1    
    36   16   34 1    
    37   17   35 1    
    38   18   36 1    
@<TRIPOS>SUBSTRUCTURE
     1 <0>         1 GROUP             0       ****    0 ROOT    
