@<TRIPOS>MOLECULE
ppard-ligand
59   60    1
SMALL
USER_CHARGES


@<TRIPOS>ATOM
      1 C1         14.6831    8.0017   33.2081 C.3       1 <0>        -0.1800 
      2 C2         19.9773   -0.5059   38.3928 C.3       1 <0>        -0.1800 
      3 C3         18.2849    2.8808   35.2174 C.ar      1 <0>        -0.1150 
      4 C4         11.7552    2.6623   42.2300 C.ar      1 <0>        -0.1150 
      5 C5         11.8259    2.4140   40.8470 C.ar      1 <0>        -0.1150 
      6 C6         17.6477    4.0632   35.6361 C.ar      1 <0>        -0.1150 
      7 C7         16.2553    1.6199   35.6844 C.ar      1 <0>        -0.1150 
      8 C8         13.5765    4.2560   42.0427 C.ar      1 <0>        -0.1150 
      9 C9         14.7181    7.3417   34.5912 C.3       1 <0>        -0.1200 
     10 C10        19.5102    0.2641   37.1376 C.3       1 <0>        -0.1200 
     11 C11        16.1499    7.0391   35.0584 C.3       1 <0>        -0.1200 
     12 C12        16.2112    6.4352   36.4692 C.3       1 <0>         0.1400 
     13 C13        18.2886    0.3638   34.8571 C.3       1 <0>        -0.0050 
     14 C14        14.1575    2.7440   36.5271 C.3       1 <0>         0.1950 
     15 C15        17.5919    1.6533   35.2486 C.ar      1 <0>        -0.1150 
     16 C16        12.6395    3.5687   42.8420 C.ar      1 <0>         0.1500 
     17 C17        12.7735    3.0891   40.0479 C.ar      1 <0>        -0.1150 
     18 C18        16.3056    4.0378   36.0919 C.ar      1 <0>         0.0850 
     19 C19        15.6130    2.8021   36.1017 C.ar      1 <0>        -0.1150 
     20 C20        13.6405    4.0310   40.6552 C.ar      1 <0>         0.2200 
     21 C21        18.6598   -0.5099   36.0814 C.3       1 <0>        -0.1600 
     22 C22        12.7843    2.8377   38.5677 C.2       1 <0>         0.6150 
     23 C23        19.3252   -1.8244   35.6547 C.2       1 <0>         0.7000 
     24 C24        12.5760    3.7834   44.3468 C.3       1 <0>         0.4500 
     25 N1         13.9774    2.8828   37.9617 N.am      1 <0>        -0.5000 
     26 O1         19.5771   -2.6368   36.5652 O.co2     1 <0>        -0.8000 
     27 O2         11.7407    2.5633   37.9765 O.2       1 <0>        -0.5000 
     28 O3         19.5774   -2.0066   34.4426 O.co2     1 <0>        -0.8000 
     29 O4         15.6049    5.1505   36.5202 O.3       1 <0>        -0.2850 
     30 F1         14.5395    4.7330   39.9230 F         1 <0>        -0.2200 
     31 F2         13.1765    4.9186   44.7056 F         1 <0>        -0.2000 
     32 F3         11.3072    3.8242   44.7547 F         1 <0>        -0.2000 
     33 F4         13.1775    2.7654   44.9572 F         1 <0>        -0.2000 
     34 H1         13.6562    8.1643   32.8820 H         1 <0>         0.0600 
     35 H2         15.1844    8.9684   33.2197 H         1 <0>         0.0600 
     36 H3         15.1762    7.3792   32.4612 H         1 <0>         0.0600 
     37 H4         20.3029    0.1643   39.1848 H         1 <0>         0.0600 
     38 H5         20.8275   -1.1510   38.1669 H         1 <0>         0.0600 
     39 H6         19.1816   -1.1358   38.7933 H         1 <0>         0.0600 
     40 H7         19.3142    2.9161   34.8864 H         1 <0>         0.1150 
     41 H8         11.0067    2.1630   42.8274 H         1 <0>         0.1150 
     42 H9         11.1370    1.7109   40.3991 H         1 <0>         0.1150 
     43 H10        18.2159    4.9780   35.5919 H         1 <0>         0.1150 
     44 H11        15.7231    0.6797   35.7021 H         1 <0>         0.1150 
     45 H12        14.2580    4.9628   42.4899 H         1 <0>         0.1150 
     46 H13        14.1375    6.4183   34.5685 H         1 <0>         0.0600 
     47 H14        14.2260    7.9957   35.3135 H         1 <0>         0.0600 
     48 H15        18.9421    1.1266   37.4863 H         1 <0>         0.0600 
     49 H16        20.3774    0.6822   36.6381 H         1 <0>         0.0600 
     50 H17        16.7309    7.9628   35.0473 H         1 <0>         0.0600 
     51 H18        16.6262    6.3611   34.3520 H         1 <0>         0.0600 
     52 H19        15.6781    7.0842   37.1657 H         1 <0>         0.0300 
     53 H20        17.2331    6.3962   36.8361 H         1 <0>         0.0300 
     54 H21        19.1778    0.6090   34.2756 H         1 <0>         0.0600 
     55 H22        17.6318   -0.1900   34.1850 H         1 <0>         0.0600 
     56 H23        13.6306    3.5665   36.0430 H         1 <0>         0.0600 
     57 H24        13.6998    1.8176   36.1760 H         1 <0>         0.0600 
     58 H25        17.7246   -0.8272   36.5350 H         1 <0>         0.0600 
     59 H26        14.7956    3.1063   38.5142 H         1 <0>         0.3000 
@<TRIPOS>BOND
     1    1    9 1    
     2    1   34 1    
     3    1   35 1    
     4    1   36 1    
     5    2   10 1    
     6    2   37 1    
     7    2   38 1    
     8    2   39 1    
     9    3    6 ar   
    10    3   15 ar   
    11    3   40 1    
    12    4    5 ar   
    13    4   16 ar   
    14    4   41 1    
    15    5   17 ar   
    16    5   42 1    
    17    6   18 ar   
    18    6   43 1    
    19    7   15 ar   
    20    7   19 ar   
    21    7   44 1    
    22    8   16 ar   
    23    8   20 ar   
    24    8   45 1    
    25    9   11 1    
    26    9   46 1    
    27    9   47 1    
    28   10   21 1    
    29   10   48 1    
    30   10   49 1    
    31   11   12 1    
    32   11   50 1    
    33   11   51 1    
    34   12   29 1    
    35   12   52 1    
    36   12   53 1    
    37   13   15 1    
    38   13   21 1    
    39   13   54 1    
    40   13   55 1    
    41   14   19 1    
    42   14   25 1    
    43   14   56 1    
    44   14   57 1    
    45   16   24 1    
    46   17   20 ar   
    47   17   22 1    
    48   18   19 ar   
    49   18   29 1    
    50   20   30 1    
    51   21   23 1    
    52   21   58 1    
    53   22   25 am   BACKBONE|DICT|INTERRES
    54   22   27 2    
    55   23   26 1    
    56   23   28 2    
    57   24   31 1    
    58   24   32 1    
    59   24   33 1    
    60   25   59 1    
@<TRIPOS>SUBSTRUCTURE
     1 <0>         1 GROUP             0       ****    0 ROOT    
@<TRIPOS>MOLECULE
ppard-ligand
59   60    1
SMALL
USER_CHARGES


@<TRIPOS>ATOM
      1 C1         15.0596    8.5115   33.8841 C.3       1 <0>        -0.1800 
      2 C2         19.9769   -0.5098   38.4021 C.3       1 <0>        -0.1800 
      3 C3         18.3073    2.8514   35.3158 C.ar      1 <0>        -0.1150 
      4 C4         11.7550    2.6742   42.3023 C.ar      1 <0>        -0.1150 
      5 C5         11.8214    2.4272   40.9189 C.ar      1 <0>        -0.1150 
      6 C6         17.6795    4.0099   35.8022 C.ar      1 <0>        -0.1150 
      7 C7         16.2572    1.5809   35.7047 C.ar      1 <0>        -0.1150 
      8 C8         13.5766    4.2651   42.1058 C.ar      1 <0>        -0.1150 
      9 C9         14.2382    8.1717   35.1355 C.3       1 <0>        -0.1200 
     10 C10        19.5126    0.2602   37.1489 C.3       1 <0>        -0.1200 
     11 C11        14.9760    7.2980   36.1535 C.3       1 <0>        -0.1200 
     12 C12        15.2376    5.8911   35.6292 C.3       1 <0>         0.1400 
     13 C13        18.2941    0.3594   34.8653 C.3       1 <0>        -0.0050 
     14 C14        14.1670    2.6683   36.6146 C.3       1 <0>         0.1950 
     15 C15        17.5983    1.6338   35.2809 C.ar      1 <0>        -0.1150 
     16 C16        12.6393    3.5857   42.9103 C.ar      1 <0>         0.1500 
     17 C17        12.7665    3.0993   40.1147 C.ar      1 <0>        -0.1150 
     18 C18        16.3420    3.9557   36.2431 C.ar      1 <0>         0.0850 
     19 C19        15.6225    2.7390   36.1915 C.ar      1 <0>        -0.1150 
     20 C20        13.6365    4.0390   40.7190 C.ar      1 <0>         0.2200 
     21 C21        18.6667   -0.5117   36.0887 C.3       1 <0>        -0.1600 
     22 C22        12.7791    2.8412   38.6371 C.2       1 <0>         0.6150 
     23 C23        19.3309   -1.8194   35.6555 C.2       1 <0>         0.7000 
     24 C24        12.5756    3.8128   44.4150 C.3       1 <0>         0.4500 
     25 N1         13.9771    2.8726   38.0388 N.am      1 <0>        -0.5000 
     26 O1         19.5774   -2.0001   34.4427 O.co2     1 <0>        -0.8000 
     27 O2         11.7378    2.5635   38.0431 O.2       1 <0>        -0.5000 
     28 O3         19.5774   -2.6368   36.5609 O.co2     1 <0>        -0.8000 
     29 O4         15.7400    5.0984   36.6893 O.3       1 <0>        -0.2850 
     30 F1         14.5353    4.7374   39.9838 F         1 <0>        -0.2200 
     31 F2         13.1772    2.7992   45.0351 F         1 <0>        -0.2000 
     32 F3         13.1774    4.9509   44.7637 F         1 <0>        -0.2000 
     33 F4         11.3084    3.8633   44.8248 F         1 <0>        -0.2000 
     34 H1         14.5252    9.2178   33.2485 H         1 <0>         0.0600 
     35 H2         16.0131    8.9632   34.1545 H         1 <0>         0.0600 
     36 H3         15.2644    7.6250   33.2847 H         1 <0>         0.0600 
     37 H4         20.2931    0.1636   39.1958 H         1 <0>         0.0600 
     38 H5         20.8268   -1.1545   38.1808 H         1 <0>         0.0600 
     39 H6         19.1783   -1.1404   38.7967 H         1 <0>         0.0600 
     40 H7         19.3384    2.8950   34.9989 H         1 <0>         0.1150 
     41 H8         11.0169    2.1634   42.9019 H         1 <0>         0.1150 
     42 H9         11.1334    1.7213   40.4744 H         1 <0>         0.1150 
     43 H10        18.2235    4.9421   35.8372 H         1 <0>         0.1150 
     44 H11        15.7228    0.6418   35.6749 H         1 <0>         0.1150 
     45 H12        14.2647    4.9630   42.5518 H         1 <0>         0.1150 
     46 H13        13.2956    7.7058   34.8442 H         1 <0>         0.0600 
     47 H14        13.9774    9.0946   35.6425 H         1 <0>         0.0600 
     48 H15        18.9390    1.1150   37.5063 H         1 <0>         0.0600 
     49 H16        20.3774    0.6856   36.6544 H         1 <0>         0.0600 
     50 H17        14.3774    7.2333   37.0626 H         1 <0>         0.0600 
     51 H18        15.9197    7.7629   36.4403 H         1 <0>         0.0600 
     52 H19        15.9403    5.9310   34.7939 H         1 <0>         0.0300 
     53 H20        14.3109    5.4546   35.2568 H         1 <0>         0.0300 
     54 H21        19.1777    0.6149   34.2815 H         1 <0>         0.0600 
     55 H22        17.6342   -0.1898   34.1923 H         1 <0>         0.0600 
     56 H23        13.6202    3.4469   36.0878 H         1 <0>         0.0600 
     57 H24        13.7316    1.7138   36.3133 H         1 <0>         0.0600 
     58 H25        17.7314   -0.8345   36.5408 H         1 <0>         0.0600 
     59 H26        14.7937    3.0994   38.5911 H         1 <0>         0.3000 
@<TRIPOS>BOND
     1    1    9 1    
     2    1   34 1    
     3    1   35 1    
     4    1   36 1    
     5    2   10 1    
     6    2   37 1    
     7    2   38 1    
     8    2   39 1    
     9    3    6 ar   
    10    3   15 ar   
    11    3   40 1    
    12    4    5 ar   
    13    4   16 ar   
    14    4   41 1    
    15    5   17 ar   
    16    5   42 1    
    17    6   18 ar   
    18    6   43 1    
    19    7   15 ar   
    20    7   19 ar   
    21    7   44 1    
    22    8   16 ar   
    23    8   20 ar   
    24    8   45 1    
    25    9   11 1    
    26    9   46 1    
    27    9   47 1    
    28   10   21 1    
    29   10   48 1    
    30   10   49 1    
    31   11   12 1    
    32   11   50 1    
    33   11   51 1    
    34   12   29 1    
    35   12   52 1    
    36   12   53 1    
    37   13   15 1    
    38   13   21 1    
    39   13   54 1    
    40   13   55 1    
    41   14   19 1    
    42   14   25 1    
    43   14   56 1    
    44   14   57 1    
    45   16   24 1    
    46   17   20 ar   
    47   17   22 1    
    48   18   19 ar   
    49   18   29 1    
    50   20   30 1    
    51   21   23 1    
    52   21   58 1    
    53   22   25 am   BACKBONE|DICT|INTERRES
    54   22   27 2    
    55   23   26 1    
    56   23   28 2    
    57   24   31 1    
    58   24   32 1    
    59   24   33 1    
    60   25   59 1    
@<TRIPOS>SUBSTRUCTURE
     1 <0>         1 GROUP             0       ****    0 ROOT    
@<TRIPOS>MOLECULE
ppard-ligand
59   60    1
SMALL
USER_CHARGES


@<TRIPOS>ATOM
      1 C1         14.5945    8.0122   33.6735 C.3       1 <0>        -0.1800 
      2 C2         20.0290   -0.5105   38.4287 C.3       1 <0>        -0.1800 
      3 C3         17.9947    2.8675   35.5192 C.ar      1 <0>        -0.1150 
      4 C4         13.5234    4.2973   42.2434 C.ar      1 <0>        -0.1150 
      5 C5         13.5212    3.9618   40.8764 C.ar      1 <0>        -0.1150 
      6 C6         17.2986    3.9926   35.9925 C.ar      1 <0>        -0.1150 
      7 C7         16.0468    1.4784   35.9562 C.ar      1 <0>        -0.1150 
      8 C8         11.5780    2.8879   42.5950 C.ar      1 <0>        -0.1150 
      9 C9         14.5021    7.2511   35.0018 C.3       1 <0>        -0.1200 
     10 C10        19.5264    0.2693   37.1997 C.3       1 <0>        -0.1200 
     11 C11        15.8822    6.9610   35.6117 C.3       1 <0>        -0.1200 
     12 C12        15.7991    6.2385   36.9714 C.3       1 <0>         0.1400 
     13 C13        18.1313    0.3845   35.0258 C.3       1 <0>        -0.0050 
     14 C14        13.9093    2.4224   36.8900 C.3       1 <0>         0.1950 
     15 C15        17.3711    1.6073   35.5007 C.ar      1 <0>        -0.1150 
     16 C16        12.5538    3.7575   43.1134 C.ar      1 <0>         0.1500 
     17 C17        12.5543    3.0682   40.3613 C.ar      1 <0>        -0.1150 
     18 C18        15.9577    3.8801   36.4426 C.ar      1 <0>         0.0850 
     19 C19        15.3413    2.6044   36.4280 C.ar      1 <0>        -0.1150 
     20 C20        11.5774    2.5369   41.2336 C.ar      1 <0>         0.2200 
     21 C21        18.6274   -0.5055   36.1913 C.3       1 <0>        -0.1600 
     22 C22        12.5310    2.7374   38.8978 C.2       1 <0>         0.6150 
     23 C23        19.3198   -1.7639   35.6648 C.2       1 <0>         0.7000 
     24 C24        12.5571    4.0727   44.5990 C.3       1 <0>         0.4500 
     25 N1         13.7315    2.6202   38.3159 N.am      1 <0>        -0.5000 
     26 O1         19.5780   -2.6368   36.5136 O.co2     1 <0>        -0.8000 
     27 O2         11.4690    2.5748   38.2967 O.2       1 <0>        -0.5000 
     28 O3         19.5776   -1.8485   34.4427 O.co2     1 <0>        -0.8000 
     29 O4         15.2013    4.9496   36.8795 O.3       1 <0>        -0.2850 
     30 F1         10.6263    1.6819   40.7873 F         1 <0>        -0.2200 
     31 F2         13.1773    3.0851   45.2422 F         1 <0>        -0.2000 
     32 F3         13.1840    5.2229   44.8432 F         1 <0>        -0.2000 
     33 F4         11.3098    4.1630   45.0613 F         1 <0>        -0.2000 
     34 H1         13.6009    8.1834   33.2536 H         1 <0>         0.0600 
     35 H2         15.0722    8.9843   33.8052 H         1 <0>         0.0600 
     36 H3         15.1732    7.4532   32.9371 H         1 <0>         0.0600 
     37 H4         20.3735    0.1619   39.2132 H         1 <0>         0.0600 
     38 H5         20.8719   -1.1540   38.1741 H         1 <0>         0.0600 
     39 H6         19.2466   -1.1464   38.8430 H         1 <0>         0.0600 
     40 H7         19.0157    2.9750   35.1817 H         1 <0>         0.1150 
     41 H8         14.2820    4.9633   42.6227 H         1 <0>         0.1150 
     42 H9         14.2675    4.4001   40.2297 H         1 <0>         0.1150 
     43 H10        17.8212    4.9359   35.9868 H         1 <0>         0.1150 
     44 H11        15.5751    0.5059   35.9468 H         1 <0>         0.1150 
     45 H12        10.8240    2.4710   43.2451 H         1 <0>         0.1150 
     46 H13        13.9719    6.3121   34.8402 H         1 <0>         0.0600 
     47 H14        13.9020    7.8279   35.7067 H         1 <0>         0.0600 
     48 H15        18.9808    1.1345   37.5746 H         1 <0>         0.0600 
     49 H16        20.3764    0.6762   36.6625 H         1 <0>         0.0600 
     50 H17        16.4158    7.9039   35.7494 H         1 <0>         0.0600 
     51 H18        16.4737    6.3853   34.9010 H         1 <0>         0.0600 
     52 H19        15.1819    6.8349   37.6425 H         1 <0>         0.0300 
     53 H20        16.7747    6.1633   37.4543 H         1 <0>         0.0300 
     54 H21        18.9728    0.7124   34.4130 H         1 <0>         0.0600 
     55 H22        17.4815   -0.1933   34.3657 H         1 <0>         0.0600 
     56 H23        13.2794    3.1479   36.3817 H         1 <0>         0.0600 
     57 H24        13.5609    1.4268   36.6149 H         1 <0>         0.0600 
     58 H25        17.7568   -0.9012   36.7095 H         1 <0>         0.0600 
     59 H26        14.5665    2.7300   38.8751 H         1 <0>         0.3000 
@<TRIPOS>BOND
     1    1    9 1    
     2    1   34 1    
     3    1   35 1    
     4    1   36 1    
     5    2   10 1    
     6    2   37 1    
     7    2   38 1    
     8    2   39 1    
     9    3    6 ar   
    10    3   15 ar   
    11    3   40 1    
    12    4    5 ar   
    13    4   16 ar   
    14    4   41 1    
    15    5   17 ar   
    16    5   42 1    
    17    6   18 ar   
    18    6   43 1    
    19    7   15 ar   
    20    7   19 ar   
    21    7   44 1    
    22    8   16 ar   
    23    8   20 ar   
    24    8   45 1    
    25    9   11 1    
    26    9   46 1    
    27    9   47 1    
    28   10   21 1    
    29   10   48 1    
    30   10   49 1    
    31   11   12 1    
    32   11   50 1    
    33   11   51 1    
    34   12   29 1    
    35   12   52 1    
    36   12   53 1    
    37   13   15 1    
    38   13   21 1    
    39   13   54 1    
    40   13   55 1    
    41   14   19 1    
    42   14   25 1    
    43   14   56 1    
    44   14   57 1    
    45   16   24 1    
    46   17   20 ar   
    47   17   22 1    
    48   18   19 ar   
    49   18   29 1    
    50   20   30 1    
    51   21   23 1    
    52   21   58 1    
    53   22   25 am   BACKBONE|DICT|INTERRES
    54   22   27 2    
    55   23   26 1    
    56   23   28 2    
    57   24   31 1    
    58   24   32 1    
    59   24   33 1    
    60   25   59 1    
@<TRIPOS>SUBSTRUCTURE
     1 <0>         1 GROUP             0       ****    0 ROOT    
