@<TRIPOS>MOLECULE
pparg-ligand
53   56    1
SMALL
USER_CHARGES


@<TRIPOS>ATOM
      1 C1          0.5139   27.9100   15.1254 C.3       1 <0>        -0.1800 
      2 C2          8.7455   25.4397   15.6503 C.3       1 <0>        -0.0650 
      3 C3          5.4410   20.3624   12.9503 C.ar      1 <0>        -0.1150 
      4 C4          5.3038   19.1181   13.5918 C.ar      1 <0>        -0.1150 
      5 C5          5.8733   21.4853   13.6813 C.ar      1 <0>        -0.1150 
      6 C6          5.6051   18.9985   14.9613 C.ar      1 <0>        -0.1150 
      7 C7          3.1535   27.3731   18.9196 C.ar      1 <0>        -0.0888 
      8 C8          4.4020   26.7634   18.7078 C.ar      1 <0>        -0.3541 
      9 C9          4.2370   23.5391   20.4170 C.ar      1 <0>        -0.2567 
     10 C10         5.4995   23.4891   19.8892 C.ar      1 <0>        -0.1072 
     11 C11         2.4281   25.4332   20.2134 C.ar      1 <0>        -0.2243 
     12 C12        -0.1670   27.1723   16.2803 C.3       1 <0>         0.1400 
     13 C13         0.8010   27.3550   19.8668 C.3       1 <0>        -0.0050 
     14 C14         6.9928   24.9313   18.4586 C.3       1 <0>         0.1175 
     15 C15         7.7590   24.3899   16.0333 C.2       1 <0>        -0.0820 
     16 C16         2.1618   26.7076   19.6678 C.ar      1 <0>        -0.1883 
     17 C17         3.6748   24.7946   20.0152 C.ar      1 <0>         0.1233 
     18 C18         6.1642   21.3786   15.0594 C.ar      1 <0>         0.0000 
     19 C19         4.6540   25.4867   19.2442 C.ar      1 <0>         0.2860 
     20 C20         6.0387   20.1184   15.6997 C.ar      1 <0>         0.1800 
     21 C21         7.0249   24.1669   17.1690 C.2       1 <0>         0.1450 
     22 C22         6.6183   22.5721   15.7668 C.2       1 <0>         0.5540 
     23 C23        -0.1570   27.0869   18.6874 C.3       1 <0>         0.1700 
     24 C24        -1.5280   27.7489   18.9265 C.2       1 <0>         0.6000 
     25 N1          6.2756   23.0165   16.9759 N.2       1 <0>        -0.5900 
     26 N2          5.7615   24.6516   19.1748 N.pl3     1 <0>        -0.2434 
     27 O1         -1.8131   28.7708   18.2626 O.co2     1 <0>        -0.8000 
     28 O2         -2.2768   27.2081   19.7704 O.co2     1 <0>        -0.8000 
     29 O3          7.5035   23.3915   15.1328 O.3       1 <0>        -0.2570 
     30 O4          0.4647   27.5610   17.4918 O.3       1 <0>        -0.4000 
     31 Cl1         6.4293   19.8897   17.3694 Cl        1 <0>        -0.1800 
     32 H1          0.0618   27.6415   14.1707 H         1 <0>         0.0600 
     33 H2          1.5745   27.6622   15.0773 H         1 <0>         0.0600 
     34 H3          0.4267   28.9897   15.2477 H         1 <0>         0.0600 
     35 H4          8.4029   26.4256   15.9643 H         1 <0>         0.0600 
     36 H5          9.7089   25.2503   16.1240 H         1 <0>         0.0600 
     37 H6          8.8963   25.4613   14.5710 H         1 <0>         0.0600 
     38 H7          5.2163   20.4560   11.8979 H         1 <0>         0.1150 
     39 H8          4.9744   18.2541   13.0335 H         1 <0>         0.1150 
     40 H9          5.9757   22.4366   13.1795 H         1 <0>         0.1150 
     41 H10         5.5103   18.0390   15.4485 H         1 <0>         0.1150 
     42 H11         2.9493   28.3447   18.4927 H         1 <0>         0.1359 
     43 H12         5.1545   27.2694   18.1220 H         1 <0>         0.1796 
     44 H13         3.7463   22.7846   21.0136 H         1 <0>         0.1377 
     45 H14         6.2386   22.7046   19.9588 H         1 <0>         0.1929 
     46 H15         1.6623   24.9273   20.7825 H         1 <0>         0.1699 
     47 H16        -1.2297   27.4162   16.2989 H         1 <0>         0.0300 
     48 H17        -0.0755   26.0953   16.1336 H         1 <0>         0.0300 
     49 H18         0.9407   28.4286   20.0021 H         1 <0>         0.0600 
     50 H19         0.3644   26.9861   20.7961 H         1 <0>         0.0600 
     51 H20         7.0549   26.0059   18.2821 H         1 <0>         0.0600 
     52 H21         7.8427   24.6649   19.0876 H         1 <0>         0.0600 
     53 H22        -0.3071   26.0084   18.6099 H         1 <0>         0.0300 
@<TRIPOS>BOND
     1    1   12 1    
     2    1   32 1    
     3    1   33 1    
     4    1   34 1    
     5    2   15 1    
     6    2   35 1    
     7    2   36 1    
     8    2   37 1    
     9    3    4 ar   
    10    3    5 ar   
    11    3   38 1    
    12    4    6 ar   
    13    4   39 1    
    14    5   18 ar   
    15    5   40 1    
    16    6   20 ar   
    17    6   41 1    
    18    7    8 ar   
    19    7   16 ar   
    20    7   42 1    
    21    8   19 ar   
    22    8   43 1    
    23    9   10 ar   
    24    9   17 ar   
    25    9   44 1    
    26   10   26 ar   
    27   10   45 1    
    28   11   16 ar   
    29   11   17 ar   
    30   11   46 1    
    31   12   30 1    
    32   12   47 1    
    33   12   48 1    
    34   13   16 1    
    35   13   23 1    
    36   13   49 1    
    37   13   50 1    
    38   14   21 1    
    39   14   26 1    
    40   14   51 1    
    41   14   52 1    
    42   15   21 2    
    43   15   29 1    
    44   17   19 ar   
    45   18   20 ar   
    46   18   22 1    
    47   19   26 ar   
    48   20   31 1    
    49   21   25 1    
    50   22   25 2    
    51   22   29 1    
    52   23   24 1    
    53   23   30 1    
    54   23   53 1    
    55   24   27 1    
    56   24   28 2    
@<TRIPOS>SUBSTRUCTURE
     1 <0>         1 GROUP             0       ****    0 ROOT    
@<TRIPOS>MOLECULE
pparg-ligand
53   56    1
SMALL
USER_CHARGES


@<TRIPOS>ATOM
      1 C1          1.2714   28.2263   15.3689 C.3       1 <0>        -0.1800 
      2 C2          8.5798   25.2480   15.5740 C.3       1 <0>        -0.0650 
      3 C3          5.2289   18.8552   15.0073 C.ar      1 <0>        -0.1150 
      4 C4          5.2246   18.7689   13.6033 C.ar      1 <0>        -0.1150 
      5 C5          5.6317   20.0502   15.6326 C.ar      1 <0>        -0.1150 
      6 C6          5.6157   19.8795   12.8335 C.ar      1 <0>        -0.1150 
      7 C7          3.1576   27.2760   18.9167 C.ar      1 <0>        -0.0888 
      8 C8          4.3648   26.5996   18.6564 C.ar      1 <0>        -0.3541 
      9 C9          4.1763   23.4941   20.5612 C.ar      1 <0>        -0.2567 
     10 C10         5.3884   23.3430   19.9436 C.ar      1 <0>        -0.1072 
     11 C11         2.4292   25.4349   20.3371 C.ar      1 <0>        -0.2243 
     12 C12         0.2929   27.5028   16.2876 C.3       1 <0>         0.1400 
     13 C13         0.8070   27.3453   19.9089 C.3       1 <0>        -0.0050 
     14 C14         6.8812   24.6352   18.3731 C.3       1 <0>         0.1175 
     15 C15         7.6285   24.1605   15.9432 C.2       1 <0>        -0.0820 
     16 C16         2.1692   26.6815   19.7296 C.ar      1 <0>        -0.1883 
     17 C17         3.6376   24.7382   20.1069 C.ar      1 <0>         0.1233 
     18 C18         6.0292   21.1713   14.8700 C.ar      1 <0>         0.0000 
     19 C19         4.5935   25.3361   19.2330 C.ar      1 <0>         0.2860 
     20 C20         6.0136   21.0812   13.4512 C.ar      1 <0>         0.1800 
     21 C21         6.9027   23.8844   17.0731 C.2       1 <0>         0.1450 
     22 C22         6.4694   22.3650   15.5912 C.2       1 <0>         0.5540 
     23 C23        -0.0689   27.2181   18.6427 C.3       1 <0>         0.1700 
     24 C24        -1.4922   27.7609   18.8777 C.2       1 <0>         0.6000 
     25 N1          6.1830   22.7172   16.8452 N.2       1 <0>        -0.5900 
     26 N2          5.6572   24.4458   19.1422 N.pl3     1 <0>        -0.2434 
     27 O1         -2.1773   27.2081   19.7682 O.co2     1 <0>        -0.8000 
     28 O2         -1.8762   28.7217   18.1708 O.co2     1 <0>        -0.8000 
     29 O3          7.3597   23.2105   14.9995 O.3       1 <0>        -0.2570 
     30 O4          0.6021   27.9225   17.6024 O.3       1 <0>        -0.4000 
     31 Cl1         6.4263   22.4070   12.4186 Cl        1 <0>        -0.1800 
     32 H1          1.1359   27.9000   14.3401 H         1 <0>         0.0600 
     33 H2          2.3010   28.0088   15.6515 H         1 <0>         0.0600 
     34 H3          1.1260   29.3066   15.4114 H         1 <0>         0.0600 
     35 H4          8.4215   26.1367   16.1876 H         1 <0>         0.0600 
     36 H5          9.6147   24.9233   15.7036 H         1 <0>         0.0600 
     37 H6          8.4392   25.5384   14.5320 H         1 <0>         0.0600 
     38 H7          4.9235   18.0081   15.6027 H         1 <0>         0.1150 
     39 H8          4.9151   17.8555   13.1198 H         1 <0>         0.1150 
     40 H9          5.6340   20.1019   16.7132 H         1 <0>         0.1150 
     41 H10         5.6025   19.8099   11.7555 H         1 <0>         0.1150 
     42 H11         2.9759   28.2325   18.4490 H         1 <0>         0.1359 
     43 H12         5.0962   27.0414   17.9972 H         1 <0>         0.1796 
     44 H13         3.6986   22.8091   21.2466 H         1 <0>         0.1377 
     45 H14         6.1008   22.5336   20.0127 H         1 <0>         0.1929 
     46 H15         1.6795   24.9843   20.9699 H         1 <0>         0.1699 
     47 H16        -0.7371   27.7385   16.0214 H         1 <0>         0.0300 
     48 H17         0.4268   26.4254   16.1890 H         1 <0>         0.0300 
     49 H18         0.9528   28.3968   20.1568 H         1 <0>         0.0600 
     50 H19         0.2990   26.8964   20.7651 H         1 <0>         0.0600 
     51 H20         7.0224   25.7010   18.2007 H         1 <0>         0.0600 
     52 H21         7.7307   24.3150   18.9708 H         1 <0>         0.0600 
     53 H22        -0.1540   26.1594   18.3871 H         1 <0>         0.0300 
@<TRIPOS>BOND
     1    1   12 1    
     2    1   32 1    
     3    1   33 1    
     4    1   34 1    
     5    2   15 1    
     6    2   35 1    
     7    2   36 1    
     8    2   37 1    
     9    3    4 ar   
    10    3    5 ar   
    11    3   38 1    
    12    4    6 ar   
    13    4   39 1    
    14    5   18 ar   
    15    5   40 1    
    16    6   20 ar   
    17    6   41 1    
    18    7    8 ar   
    19    7   16 ar   
    20    7   42 1    
    21    8   19 ar   
    22    8   43 1    
    23    9   10 ar   
    24    9   17 ar   
    25    9   44 1    
    26   10   26 ar   
    27   10   45 1    
    28   11   16 ar   
    29   11   17 ar   
    30   11   46 1    
    31   12   30 1    
    32   12   47 1    
    33   12   48 1    
    34   13   16 1    
    35   13   23 1    
    36   13   49 1    
    37   13   50 1    
    38   14   21 1    
    39   14   26 1    
    40   14   51 1    
    41   14   52 1    
    42   15   21 2    
    43   15   29 1    
    44   17   19 ar   
    45   18   20 ar   
    46   18   22 1    
    47   19   26 ar   
    48   20   31 1    
    49   21   25 1    
    50   22   25 2    
    51   22   29 1    
    52   23   24 1    
    53   23   30 1    
    54   23   53 1    
    55   24   27 1    
    56   24   28 2    
@<TRIPOS>SUBSTRUCTURE
     1 <0>         1 GROUP             0       ****    0 ROOT    
@<TRIPOS>MOLECULE
pparg-ligand
53   56    1
SMALL
USER_CHARGES


@<TRIPOS>ATOM
      1 C1         -0.2322   28.8772   16.2999 C.3       1 <0>        -0.1800 
      2 C2          8.4797   25.4870   15.6429 C.3       1 <0>        -0.0650 
      3 C3          5.5680   18.8460   15.6328 C.ar      1 <0>        -0.1150 
      4 C4          5.5426   18.6844   14.2358 C.ar      1 <0>        -0.1150 
      5 C5          5.9348   20.0860   16.1896 C.ar      1 <0>        -0.1150 
      6 C6          5.8783   19.7650   13.3989 C.ar      1 <0>        -0.1150 
      7 C7          3.1806   27.6208   18.5221 C.ar      1 <0>        -0.0888 
      8 C8          4.4042   26.9328   18.4537 C.ar      1 <0>        -0.3541 
      9 C9          3.9369   23.8771   20.4004 C.ar      1 <0>        -0.2567 
     10 C10         5.2285   23.7186   19.9738 C.ar      1 <0>        -0.1072 
     11 C11         2.2573   25.8367   19.9104 C.ar      1 <0>        -0.2243 
     12 C12         0.6838   27.7114   16.6788 C.3       1 <0>         0.1400 
     13 C13         0.7702   27.8026   19.2896 C.3       1 <0>        -0.0050 
     14 C14         6.8978   24.9569   18.5468 C.3       1 <0>         0.1175 
     15 C15         7.6168   24.3684   16.1181 C.2       1 <0>        -0.0820 
     16 C16         2.1027   27.0722   19.2455 C.ar      1 <0>        -0.1883 
     17 C17         3.4765   25.1211   19.8578 C.ar      1 <0>         0.1233 
     18 C18         6.2874   21.1722   15.3584 C.ar      1 <0>         0.0000 
     19 C19         4.5451   25.6948   19.1086 C.ar      1 <0>         0.2860 
     20 C20         6.2464   21.0096   13.9492 C.ar      1 <0>         0.1800 
     21 C21         6.9536   24.1342   17.2945 C.2       1 <0>         0.1450 
     22 C22         6.6500   22.4383   15.9881 C.2       1 <0>         0.5540 
     23 C23        -0.3825   26.9608   18.7039 C.3       1 <0>         0.1700 
     24 C24        -1.7385   27.6659   18.9015 C.2       1 <0>         0.6000 
     25 N1          6.3136   22.9089   17.1890 N.2       1 <0>        -0.5900 
     26 N2          5.6055   24.8017   19.1896 N.pl3     1 <0>        -0.2434 
     27 O1         -2.5177   27.2128   19.7697 O.co2     1 <0>        -0.8000 
     28 O2         -1.9678   28.6617   18.1795 O.co2     1 <0>        -0.8000 
     29 O3          7.4249   23.3054   15.2777 O.3       1 <0>        -0.2570 
     30 O4         -0.1013   26.7190   17.3243 O.3       1 <0>        -0.4000 
     31 Cl1         6.6078   22.3048   12.8608 Cl        1 <0>        -0.1800 
     32 H1          0.3284   29.6673   15.8007 H         1 <0>         0.0600 
     33 H2         -0.7026   29.3056   17.1851 H         1 <0>         0.0600 
     34 H3         -1.0231   28.5477   15.6259 H         1 <0>         0.0600 
     35 H4          8.0549   26.4503   15.9250 H         1 <0>         0.0600 
     36 H5          9.4750   25.4153   16.0818 H         1 <0>         0.0600 
     37 H6          8.5849   25.4679   14.5580 H         1 <0>         0.0600 
     38 H7          5.3051   18.0203   16.2777 H         1 <0>         0.1150 
     39 H8          5.2597   17.7351   13.8052 H         1 <0>         0.1150 
     40 H9          5.9511   20.2001   17.2639 H         1 <0>         0.1150 
     41 H10         5.8463   19.6415   12.3262 H         1 <0>         0.1150 
     42 H11         3.0623   28.5620   18.0041 H         1 <0>         0.1359 
     43 H12         5.2234   27.3485   17.8867 H         1 <0>         0.1796 
     44 H13         3.3635   23.2017   21.0177 H         1 <0>         0.1377 
     45 H14         5.9151   22.9063   20.1614 H         1 <0>         0.1929 
     46 H15         1.4260   25.4204   20.4598 H         1 <0>         0.1699 
     47 H16         1.1606   27.3104   15.7839 H         1 <0>         0.0300 
     48 H17         1.4717   28.0645   17.3455 H         1 <0>         0.0300 
     49 H18         0.8674   28.7412   18.7420 H         1 <0>         0.0600 
     50 H19         0.5485   28.0752   20.3225 H         1 <0>         0.0600 
     51 H20         7.0532   26.0148   18.3314 H         1 <0>         0.0600 
     52 H21         7.6828   24.6575   19.2418 H         1 <0>         0.0600 
     53 H22        -0.4120   26.0080   19.2359 H         1 <0>         0.0300 
@<TRIPOS>BOND
     1    1   12 1    
     2    1   32 1    
     3    1   33 1    
     4    1   34 1    
     5    2   15 1    
     6    2   35 1    
     7    2   36 1    
     8    2   37 1    
     9    3    4 ar   
    10    3    5 ar   
    11    3   38 1    
    12    4    6 ar   
    13    4   39 1    
    14    5   18 ar   
    15    5   40 1    
    16    6   20 ar   
    17    6   41 1    
    18    7    8 ar   
    19    7   16 ar   
    20    7   42 1    
    21    8   19 ar   
    22    8   43 1    
    23    9   10 ar   
    24    9   17 ar   
    25    9   44 1    
    26   10   26 ar   
    27   10   45 1    
    28   11   16 ar   
    29   11   17 ar   
    30   11   46 1    
    31   12   30 1    
    32   12   47 1    
    33   12   48 1    
    34   13   16 1    
    35   13   23 1    
    36   13   49 1    
    37   13   50 1    
    38   14   21 1    
    39   14   26 1    
    40   14   51 1    
    41   14   52 1    
    42   15   21 2    
    43   15   29 1    
    44   17   19 ar   
    45   18   20 ar   
    46   18   22 1    
    47   19   26 ar   
    48   20   31 1    
    49   21   25 1    
    50   22   25 2    
    51   22   29 1    
    52   23   24 1    
    53   23   30 1    
    54   23   53 1    
    55   24   27 1    
    56   24   28 2    
@<TRIPOS>SUBSTRUCTURE
     1 <0>         1 GROUP             0       ****    0 ROOT    
@<TRIPOS>MOLECULE
pparg-ligand
53   56    1
SMALL
USER_CHARGES


@<TRIPOS>ATOM
      1 C1          1.5651   29.1635   15.7429 C.3       1 <0>        -0.1800 
      2 C2          8.5653   25.2826   15.5062 C.3       1 <0>        -0.0650 
      3 C3          5.4420   18.7932   15.2661 C.ar      1 <0>        -0.1150 
      4 C4          5.2861   18.6929   13.8721 C.ar      1 <0>        -0.1150 
      5 C5          5.8230   20.0193   15.8422 C.ar      1 <0>        -0.1150 
      6 C6          5.5045   19.8205   13.0593 C.ar      1 <0>        -0.1150 
      7 C7          3.1148   27.3923   18.9293 C.ar      1 <0>        -0.0888 
      8 C8          4.3326   26.7418   18.6621 C.ar      1 <0>        -0.3541 
      9 C9          4.1984   23.6082   20.5326 C.ar      1 <0>        -0.2567 
     10 C10         5.4143   23.4873   19.9164 C.ar      1 <0>        -0.1072 
     11 C11         2.4283   25.5265   20.3336 C.ar      1 <0>        -0.2243 
     12 C12         0.8868   27.9942   16.4529 C.3       1 <0>         0.1400 
     13 C13         0.7549   27.3903   19.9073 C.3       1 <0>        -0.0050 
     14 C14         6.8747   24.8085   18.3444 C.3       1 <0>         0.1175 
     15 C15         7.6290   24.2068   15.9392 C.2       1 <0>        -0.0820 
     16 C16         2.1346   26.7656   19.7264 C.ar      1 <0>        -0.1883 
     17 C17         3.6446   24.8514   20.0936 C.ar      1 <0>         0.1233 
     18 C18         6.0501   21.1562   15.0348 C.ar      1 <0>         0.0000 
     19 C19         4.5853   25.4755   19.2245 C.ar      1 <0>         0.2860 
     20 C20         5.8807   21.0534   13.6295 C.ar      1 <0>         0.1800 
     21 C21         6.9208   23.9801   17.0913 C.2       1 <0>         0.1450 
     22 C22         6.4845   22.3866   15.6904 C.2       1 <0>         0.5540 
     23 C23        -0.0718   27.4304   18.5967 C.3       1 <0>         0.1700 
     24 C24        -1.5361   27.8185   18.8669 C.2       1 <0>         0.6000 
     25 N1          6.2165   22.7920   16.9311 N.2       1 <0>        -0.5900 
     26 N2          5.6606   24.6011   19.1219 N.pl3     1 <0>        -0.2434 
     27 O1         -2.1522   27.2081   19.7697 O.co2     1 <0>        -0.8000 
     28 O2         -2.0132   28.7432   18.1686 O.co2     1 <0>        -0.8000 
     29 O3          7.3557   23.2098   15.0451 O.3       1 <0>        -0.2570 
     30 O4          0.5148   28.4080   17.7474 O.3       1 <0>        -0.4000 
     31 Cl1         6.0822   22.4070   12.5702 Cl        1 <0>        -0.1800 
     32 H1          2.0276   28.8192   14.8189 H         1 <0>         0.0600 
     33 H2          2.3598   29.5911   16.3541 H         1 <0>         0.0600 
     34 H3          0.8538   29.9565   15.5097 H         1 <0>         0.0600 
     35 H4          8.4822   26.1591   16.1490 H         1 <0>         0.0600 
     36 H5          9.5969   24.9311   15.5396 H         1 <0>         0.0600 
     37 H6          8.3466   25.5955   14.4850 H         1 <0>         0.0600 
     38 H7          5.2700   17.9298   15.8923 H         1 <0>         0.1150 
     39 H8          4.9929   17.7534   13.4268 H         1 <0>         0.1150 
     40 H9          5.9451   20.0847   16.9139 H         1 <0>         0.1150 
     41 H10         5.3731   19.7428   11.9899 H         1 <0>         0.1150 
     42 H11         2.9199   28.3547   18.4800 H         1 <0>         0.1359 
     43 H12         5.0547   27.2055   18.0074 H         1 <0>         0.1796 
     44 H13         3.7296   22.9055   21.2055 H         1 <0>         0.1377 
     45 H14         6.1376   22.6866   19.9743 H         1 <0>         0.1929 
     46 H15         1.6920   25.0563   20.9698 H         1 <0>         0.1699 
     47 H16         0.0316   27.6200   15.8899 H         1 <0>         0.0300 
     48 H17         1.6207   27.2081   16.5467 H         1 <0>         0.0300 
     49 H18         0.8741   28.4010   20.2985 H         1 <0>         0.0600 
     50 H19         0.2204   26.8294   20.6755 H         1 <0>         0.0600 
     51 H20         6.9544   25.8667   18.0994 H         1 <0>         0.0600 
     52 H21         7.7346   24.5761   18.9699 H         1 <0>         0.0600 
     53 H22        -0.0715   26.4409   18.1349 H         1 <0>         0.0300 
@<TRIPOS>BOND
     1    1   12 1    
     2    1   32 1    
     3    1   33 1    
     4    1   34 1    
     5    2   15 1    
     6    2   35 1    
     7    2   36 1    
     8    2   37 1    
     9    3    4 ar   
    10    3    5 ar   
    11    3   38 1    
    12    4    6 ar   
    13    4   39 1    
    14    5   18 ar   
    15    5   40 1    
    16    6   20 ar   
    17    6   41 1    
    18    7    8 ar   
    19    7   16 ar   
    20    7   42 1    
    21    8   19 ar   
    22    8   43 1    
    23    9   10 ar   
    24    9   17 ar   
    25    9   44 1    
    26   10   26 ar   
    27   10   45 1    
    28   11   16 ar   
    29   11   17 ar   
    30   11   46 1    
    31   12   30 1    
    32   12   47 1    
    33   12   48 1    
    34   13   16 1    
    35   13   23 1    
    36   13   49 1    
    37   13   50 1    
    38   14   21 1    
    39   14   26 1    
    40   14   51 1    
    41   14   52 1    
    42   15   21 2    
    43   15   29 1    
    44   17   19 ar   
    45   18   20 ar   
    46   18   22 1    
    47   19   26 ar   
    48   20   31 1    
    49   21   25 1    
    50   22   25 2    
    51   22   29 1    
    52   23   24 1    
    53   23   30 1    
    54   23   53 1    
    55   24   27 1    
    56   24   28 2    
@<TRIPOS>SUBSTRUCTURE
     1 <0>         1 GROUP             0       ****    0 ROOT    
@<TRIPOS>MOLECULE
pparg-ligand
53   56    1
SMALL
USER_CHARGES


@<TRIPOS>ATOM
      1 C1          0.1732   27.8797   15.0688 C.3       1 <0>        -0.1800 
      2 C2          7.4845   21.1581   19.8923 C.3       1 <0>        -0.0650 
      3 C3          5.4160   18.5017   14.2317 C.ar      1 <0>        -0.1150 
      4 C4          5.5832   19.0665   12.9544 C.ar      1 <0>        -0.1150 
      5 C5          5.6973   19.2664   15.3799 C.ar      1 <0>        -0.1150 
      6 C6          6.0254   20.3967   12.8286 C.ar      1 <0>        -0.1150 
      7 C7          2.9609   26.9964   18.7442 C.ar      1 <0>        -0.0888 
      8 C8          4.1355   26.2332   18.6308 C.ar      1 <0>        -0.3541 
      9 C9          3.8693   23.6158   21.1653 C.ar      1 <0>        -0.2567 
     10 C10         5.0741   23.3032   20.5943 C.ar      1 <0>        -0.1072 
     11 C11         2.2016   25.5539   20.5624 C.ar      1 <0>        -0.2243 
     12 C12        -0.4382   27.1582   16.2717 C.3       1 <0>         0.1400 
     13 C13         0.7042   27.4627   19.8036 C.3       1 <0>        -0.0050 
     14 C14         6.5458   24.1569   18.7337 C.3       1 <0>         0.1175 
     15 C15         7.0234   21.6075   18.5480 C.2       1 <0>        -0.0820 
     16 C16         1.9887   26.6557   19.7060 C.ar      1 <0>        -0.1883 
     17 C17         3.3734   24.7668   20.4702 C.ar      1 <0>         0.1233 
     18 C18         6.1554   20.5975   15.2637 C.ar      1 <0>         0.0000 
     19 C19         4.3333   25.1282   19.4800 C.ar      1 <0>         0.2860 
     20 C20         6.3088   21.1686   13.9737 C.ar      1 <0>         0.1800 
     21 C21         6.6436   22.8263   18.0493 C.2       1 <0>         0.1450 
     22 C22         6.4223   21.3483   16.4869 C.2       1 <0>         0.5540 
     23 C23        -0.2922   27.1227   18.6757 C.3       1 <0>         0.1700 
     24 C24        -1.6645   27.7743   18.9346 C.2       1 <0>         0.6000 
     25 N1          6.2890   22.6538   16.7202 N.2       1 <0>        -0.5900 
     26 N2          5.3627   24.2008   19.5739 N.pl3     1 <0>        -0.2434 
     27 O1         -1.9577   28.8070   18.2914 O.co2     1 <0>        -0.8000 
     28 O2         -2.4064   27.2147   19.7724 O.co2     1 <0>        -0.8000 
     29 O3          6.8968   20.6635   17.5652 O.3       1 <0>        -0.2570 
     30 O4          0.2764   27.5477   17.4360 O.3       1 <0>        -0.4000 
     31 Cl1         6.8099   22.8085   13.7451 Cl        1 <0>        -0.1800 
     32 H1         -0.3439   27.6101   14.1482 H         1 <0>         0.0600 
     33 H2          1.2255   27.6191   14.9528 H         1 <0>         0.0600 
     34 H3          0.1066   28.9612   15.1883 H         1 <0>         0.0600 
     35 H4          8.1916   21.8705   20.3171 H         1 <0>         0.0600 
     36 H5          6.6405   21.0709   20.5768 H         1 <0>         0.0600 
     37 H6          7.9761   20.1868   19.8341 H         1 <0>         0.0600 
     38 H7          5.0710   17.4830   14.3317 H         1 <0>         0.1150 
     39 H8          5.3664   18.4834   12.0714 H         1 <0>         0.1150 
     40 H9          5.5655   18.8235   16.3565 H         1 <0>         0.1150 
     41 H10         6.1414   20.8317   11.8466 H         1 <0>         0.1150 
     42 H11         2.7964   27.8336   18.0808 H         1 <0>         0.1359 
     43 H12         4.8717   26.4879   17.8835 H         1 <0>         0.1796 
     44 H13         3.3749   23.1002   21.9750 H         1 <0>         0.1377 
     45 H14         5.7535   22.4975   20.8305 H         1 <0>         0.1929 
     46 H15         1.4508   25.2962   21.2947 H         1 <0>         0.1699 
     47 H16        -1.4946   27.4147   16.3585 H         1 <0>         0.0300 
     48 H17        -0.3689   26.0791   16.1276 H         1 <0>         0.0300 
     49 H18         0.9551   28.5242   19.7775 H         1 <0>         0.0600 
     50 H19         0.2448   27.2832   20.7768 H         1 <0>         0.0600 
     51 H20         6.4870   24.9700   18.0092 H         1 <0>         0.0600 
     52 H21         7.4284   24.3428   19.3463 H         1 <0>         0.0600 
     53 H22        -0.4263   26.0395   18.6558 H         1 <0>         0.0300 
@<TRIPOS>BOND
     1    1   12 1    
     2    1   32 1    
     3    1   33 1    
     4    1   34 1    
     5    2   15 1    
     6    2   35 1    
     7    2   36 1    
     8    2   37 1    
     9    3    4 ar   
    10    3    5 ar   
    11    3   38 1    
    12    4    6 ar   
    13    4   39 1    
    14    5   18 ar   
    15    5   40 1    
    16    6   20 ar   
    17    6   41 1    
    18    7    8 ar   
    19    7   16 ar   
    20    7   42 1    
    21    8   19 ar   
    22    8   43 1    
    23    9   10 ar   
    24    9   17 ar   
    25    9   44 1    
    26   10   26 ar   
    27   10   45 1    
    28   11   16 ar   
    29   11   17 ar   
    30   11   46 1    
    31   12   30 1    
    32   12   47 1    
    33   12   48 1    
    34   13   16 1    
    35   13   23 1    
    36   13   49 1    
    37   13   50 1    
    38   14   21 1    
    39   14   26 1    
    40   14   51 1    
    41   14   52 1    
    42   15   21 2    
    43   15   29 1    
    44   17   19 ar   
    45   18   20 ar   
    46   18   22 1    
    47   19   26 ar   
    48   20   31 1    
    49   21   25 1    
    50   22   25 2    
    51   22   29 1    
    52   23   24 1    
    53   23   30 1    
    54   23   53 1    
    55   24   27 1    
    56   24   28 2    
@<TRIPOS>SUBSTRUCTURE
     1 <0>         1 GROUP             0       ****    0 ROOT    
@<TRIPOS>MOLECULE
pparg-ligand
53   56    1
SMALL
USER_CHARGES


@<TRIPOS>ATOM
      1 C1         -0.1710   27.9526   15.4820 C.3       1 <0>        -0.1800 
      2 C2          8.4598   25.1387   15.4280 C.3       1 <0>        -0.0650 
      3 C3          5.2392   19.8656   13.0126 C.ar      1 <0>        -0.1150 
      4 C4          5.2090   18.6374   13.6976 C.ar      1 <0>        -0.1150 
      5 C5          5.6328   21.0376   13.6858 C.ar      1 <0>        -0.1150 
      6 C6          5.5883   18.5783   15.0510 C.ar      1 <0>        -0.1150 
      7 C7          3.2491   27.4554   18.8168 C.ar      1 <0>        -0.0888 
      8 C8          4.4307   26.7297   18.5790 C.ar      1 <0>        -0.3541 
      9 C9          4.0840   23.6388   20.4897 C.ar      1 <0>        -0.2567 
     10 C10         5.3030   23.4415   19.9000 C.ar      1 <0>        -0.1072 
     11 C11         2.4300   25.6548   20.2426 C.ar      1 <0>        -0.2243 
     12 C12         0.6610   27.8843   16.7502 C.3       1 <0>         0.1400 
     13 C13         0.8946   27.6177   19.7653 C.3       1 <0>        -0.0050 
     14 C14         6.8677   24.6522   18.3356 C.3       1 <0>         0.1175 
     15 C15         7.5452   24.0570   15.8967 C.2       1 <0>        -0.0820 
     16 C16         2.2315   26.9059   19.6226 C.ar      1 <0>        -0.1883 
     17 C17         3.6101   24.9061   20.0288 C.ar      1 <0>         0.1233 
     18 C18         6.0009   20.9898   15.0473 C.ar      1 <0>         0.0000 
     19 C19         4.6016   25.4611   19.1668 C.ar      1 <0>         0.2860 
     20 C20         5.9916   19.7466   15.7281 C.ar      1 <0>         0.1800 
     21 C21         6.8718   23.8354   17.0726 C.2       1 <0>         0.1450 
     22 C22         6.4280   22.2187   15.7036 C.2       1 <0>         0.5540 
     23 C23        -0.1870   26.9961   18.8516 C.3       1 <0>         0.1700 
     24 C24        -1.5491   27.7083   18.9570 C.2       1 <0>         0.6000 
     25 N1          6.1644   22.6485   16.9365 N.2       1 <0>        -0.5900 
     26 N2          5.6296   24.5273   19.0965 N.pl3     1 <0>        -0.2434 
     27 O1         -2.3700   27.2239   19.7705 O.co2     1 <0>        -0.8000 
     28 O2         -1.7554   28.7164   18.2405 O.co2     1 <0>        -0.8000 
     29 O3          7.2407   23.0604   15.0094 O.3       1 <0>        -0.2570 
     30 O4          0.2463   26.7614   17.5082 O.3       1 <0>        -0.4000 
     31 Cl1         6.5181   19.6072   17.3696 Cl        1 <0>        -0.1800 
     32 H1          0.1004   28.8613   14.9706 H         1 <0>         0.0600 
     33 H2         -1.2395   27.9949   15.6990 H         1 <0>         0.0600 
     34 H3          0.0276   27.0995   14.8404 H         1 <0>         0.0600 
     35 H4          8.4305   26.0006   16.0957 H         1 <0>         0.0600 
     36 H5          9.4899   24.7820   15.3809 H         1 <0>         0.0600 
     37 H6          8.1724   25.4774   14.4312 H         1 <0>         0.0600 
     38 H7          4.9578   19.9082   11.9708 H         1 <0>         0.1150 
     39 H8          4.9061   17.7383   13.1820 H         1 <0>         0.1150 
     40 H9          5.6520   21.9781   13.1539 H         1 <0>         0.1150 
     41 H10         5.5777   17.6299   15.5682 H         1 <0>         0.1150 
     42 H11         3.1084   28.4131   18.3385 H         1 <0>         0.1359 
     43 H12         5.1874   27.1373   17.9252 H         1 <0>         0.1796 
     44 H13         3.5649   22.9727   21.1625 H         1 <0>         0.1377 
     45 H14         5.9768   22.6014   19.9817 H         1 <0>         0.1929 
     46 H15         1.6506   25.2384   20.8639 H         1 <0>         0.1699 
     47 H16         1.7149   27.7897   16.4878 H         1 <0>         0.0300 
     48 H17         0.5757   28.8140   17.3051 H         1 <0>         0.0300 
     49 H18         1.0220   28.6768   19.5570 H         1 <0>         0.0600 
     50 H19         0.5697   27.5562   20.8052 H         1 <0>         0.0600 
     51 H20         7.0342   25.7043   18.1094 H         1 <0>         0.0600 
     52 H21         7.6968   24.3435   18.9700 H         1 <0>         0.0600 
     53 H22        -0.3698   26.0081   19.2318 H         1 <0>         0.0300 
@<TRIPOS>BOND
     1    1   12 1    
     2    1   32 1    
     3    1   33 1    
     4    1   34 1    
     5    2   15 1    
     6    2   35 1    
     7    2   36 1    
     8    2   37 1    
     9    3    4 ar   
    10    3    5 ar   
    11    3   38 1    
    12    4    6 ar   
    13    4   39 1    
    14    5   18 ar   
    15    5   40 1    
    16    6   20 ar   
    17    6   41 1    
    18    7    8 ar   
    19    7   16 ar   
    20    7   42 1    
    21    8   19 ar   
    22    8   43 1    
    23    9   10 ar   
    24    9   17 ar   
    25    9   44 1    
    26   10   26 ar   
    27   10   45 1    
    28   11   16 ar   
    29   11   17 ar   
    30   11   46 1    
    31   12   30 1    
    32   12   47 1    
    33   12   48 1    
    34   13   16 1    
    35   13   23 1    
    36   13   49 1    
    37   13   50 1    
    38   14   21 1    
    39   14   26 1    
    40   14   51 1    
    41   14   52 1    
    42   15   21 2    
    43   15   29 1    
    44   17   19 ar   
    45   18   20 ar   
    46   18   22 1    
    47   19   26 ar   
    48   20   31 1    
    49   21   25 1    
    50   22   25 2    
    51   22   29 1    
    52   23   24 1    
    53   23   30 1    
    54   23   53 1    
    55   24   27 1    
    56   24   28 2    
@<TRIPOS>SUBSTRUCTURE
     1 <0>         1 GROUP             0       ****    0 ROOT    
