@<TRIPOS>MOLECULE
ppara-ligand
53   55    1
SMALL
USER_CHARGES


@<TRIPOS>ATOM
      1 C1         11.4418   38.3479   30.8027 C.3       1 <0>        -0.0650 
      2 C2         10.2161   42.9631   21.8633 C.3       1 <0>        -0.1800 
      3 C3         12.0526   42.5590   23.5385 C.3       1 <0>        -0.1800 
      4 C4         11.9169   38.2756   25.0090 C.ar      1 <0>        -0.1150 
      5 C5          9.5465   38.2234   25.5122 C.ar      1 <0>        -0.1150 
      6 C6         17.4947   38.9654   31.4748 C.ar      1 <0>        -0.1150 
      7 C7         15.9896   40.2409   32.8942 C.ar      1 <0>        -0.1150 
      8 C8         18.5779   39.3138   32.3028 C.ar      1 <0>        -0.1150 
      9 C9         17.0740   40.5895   33.7262 C.ar      1 <0>        -0.1150 
     10 C10        11.7078   39.3859   24.1673 C.ar      1 <0>        -0.1150 
     11 C11         9.3485   39.3320   24.6726 C.ar      1 <0>        -0.1150 
     12 C12        11.0733   36.5986   26.7199 C.3       1 <0>         0.1950 
     13 C13        12.9072   38.2869   30.5011 C.2       1 <0>         0.1693 
     14 C14        10.8398   37.7096   25.7139 C.ar      1 <0>        -0.1150 
     15 C15        16.1870   39.4112   31.7669 C.ar      1 <0>         0.0000 
     16 C16        18.3732   40.1155   33.4439 C.ar      1 <0>         0.1500 
     17 C17        10.4203   39.9489   24.0012 C.ar      1 <0>         0.0850 
     18 C18        13.5331   37.7655   29.3833 C.2       1 <0>        -0.2209 
     19 C19        15.0455   38.9653   30.9624 C.2       1 <0>         0.3009 
     20 C20        13.0406   37.0816   28.1579 C.2       1 <0>         0.6150 
     21 C21        11.7606   41.1125   21.4117 C.2       1 <0>         0.6000 
     22 C22        11.0658   41.8793   22.5558 C.3       1 <0>         0.2000 
     23 C23        19.5371   40.4763   34.3544 C.3       1 <0>         0.4500 
     24 N1         13.7737   38.9657   31.3676 N.2       1 <0>        -0.4803 
     25 N2         11.7193   37.0907   27.9361 N.am      1 <0>        -0.5000 
     26 O1         13.0084   41.1042   21.3681 O.co2     1 <0>        -0.8000 
     27 O2         13.8167   36.5652   27.3603 O.2       1 <0>        -0.5000 
     28 O3         11.0157   40.5655   20.5681 O.co2     1 <0>        -0.8000 
     29 O4         10.0998   41.0600   23.2364 O.3       1 <0>        -0.2850 
     30 F1         20.6294   39.7661   34.0685 F         1 <0>        -0.2000 
     31 F2         19.8165   41.7656   34.2068 F         1 <0>        -0.2000 
     32 F3         19.2189   40.2540   35.6269 F         1 <0>        -0.2000 
     33 S1         15.2462   38.1499   29.4070 S.3       1 <0>         0.0010 
     34 H1         10.9826   37.3653   30.8262 H         1 <0>         0.0600 
     35 H2         11.2652   38.8163   31.7679 H         1 <0>         0.0600 
     36 H3         10.9147   38.9451   30.0593 H         1 <0>         0.0600 
     37 H4         10.8245   43.6174   21.2367 H         1 <0>         0.0600 
     38 H5          9.4515   42.5106   21.2306 H         1 <0>         0.0600 
     39 H6          9.6842   43.5918   22.5680 H         1 <0>         0.0600 
     40 H7         12.5757   43.3844   23.0560 H         1 <0>         0.0600 
     41 H8         11.5208   42.9655   24.3979 H         1 <0>         0.0600 
     42 H9         12.8200   41.8904   23.9206 H         1 <0>         0.0600 
     43 H10        12.9162   37.8868   25.1405 H         1 <0>         0.1150 
     44 H11         8.7037   37.7993   26.0378 H         1 <0>         0.1150 
     45 H12        17.6858   38.3296   30.6235 H         1 <0>         0.1150 
     46 H13        15.0004   40.5989   33.1387 H         1 <0>         0.1150 
     47 H14        19.5666   38.9550   32.0583 H         1 <0>         0.1150 
     48 H15        16.9077   41.2161   34.5905 H         1 <0>         0.1150 
     49 H16        12.5651   39.7975   23.6625 H         1 <0>         0.1150 
     50 H17         8.3528   39.7285   24.5679 H         1 <0>         0.1150 
     51 H18        10.1139   36.1655   26.9910 H         1 <0>         0.0600 
     52 H19        11.6479   35.7971   26.2522 H         1 <0>         0.0600 
     53 H20        11.1257   37.5449   28.6134 H         1 <0>         0.3000 
@<TRIPOS>BOND
     1    1   13 1    
     2    1   34 1    
     3    1   35 1    
     4    1   36 1    
     5    2   22 1    
     6    2   37 1    
     7    2   38 1    
     8    2   39 1    
     9    3   22 1    
    10    3   40 1    
    11    3   41 1    
    12    3   42 1    
    13    4   10 ar   
    14    4   14 ar   
    15    4   43 1    
    16    5   11 ar   
    17    5   14 ar   
    18    5   44 1    
    19    6    8 ar   
    20    6   15 ar   
    21    6   45 1    
    22    7    9 ar   
    23    7   15 ar   
    24    7   46 1    
    25    8   16 ar   
    26    8   47 1    
    27    9   16 ar   
    28    9   48 1    
    29   10   17 ar   
    30   10   49 1    
    31   11   17 ar   
    32   11   50 1    
    33   12   14 1    
    34   12   25 1    
    35   12   51 1    
    36   12   52 1    
    37   13   18 2    
    38   13   24 1    
    39   15   19 1    
    40   16   23 1    
    41   17   29 1    
    42   18   20 1    
    43   18   33 1    
    44   19   24 2    
    45   19   33 1    
    46   20   25 am   BACKBONE|DICT|INTERRES
    47   20   27 2    
    48   21   22 1    
    49   21   26 1    
    50   21   28 2    
    51   22   29 1    
    52   23   30 1    
    53   23   31 1    
    54   23   32 1    
    55   25   53 1    
@<TRIPOS>SUBSTRUCTURE
     1 <0>         1 GROUP             0       ****    0 ROOT    
@<TRIPOS>MOLECULE
ppara-ligand
53   55    1
SMALL
USER_CHARGES


@<TRIPOS>ATOM
      1 C1         11.5261   38.2993   30.6937 C.3       1 <0>        -0.0650 
      2 C2          9.6529   42.6491   22.1680 C.3       1 <0>        -0.1800 
      3 C3         11.5325   42.3869   23.7803 C.3       1 <0>        -0.1800 
      4 C4          9.6541   37.7084   25.4714 C.ar      1 <0>        -0.1150 
      5 C5         11.9941   38.1641   25.0099 C.ar      1 <0>        -0.1150 
      6 C6         17.4677   38.9655   31.8259 C.ar      1 <0>        -0.1150 
      7 C7         15.8483   40.4919   32.8291 C.ar      1 <0>        -0.1150 
      8 C8         18.4511   39.4302   32.7202 C.ar      1 <0>        -0.1150 
      9 C9         16.8333   40.9564   33.7188 C.ar      1 <0>        -0.1150 
     10 C10         9.2873   38.7772   24.6334 C.ar      1 <0>        -0.1150 
     11 C11        11.6230   39.2247   24.1678 C.ar      1 <0>        -0.1150 
     12 C12        11.4292   36.3597   26.6926 C.3       1 <0>         0.1950 
     13 C13        13.0053   38.2615   30.4566 C.2       1 <0>         0.1693 
     14 C14        11.0154   37.4231   25.6948 C.ar      1 <0>        -0.1150 
     15 C15        16.1560   39.4893   31.8845 C.ar      1 <0>         0.0000 
     16 C16        18.1347   40.4180   33.6787 C.ar      1 <0>         0.1500 
     17 C17        10.2674   39.5708   23.9998 C.ar      1 <0>         0.0850 
     18 C18        13.7113   37.7772   29.3709 C.2       1 <0>        -0.2209 
     19 C19        15.0964   38.9657   31.0313 C.2       1 <0>         0.3009 
     20 C20        13.3087   37.1869   28.0791 C.2       1 <0>         0.6150 
     21 C21        11.4952   41.1402   21.4983 C.2       1 <0>         0.6000 
     22 C22        10.6776   41.6525   22.7113 C.3       1 <0>         0.2000 
     23 C23        19.1967   40.9309   34.6346 C.3       1 <0>         0.4500 
     24 N1         13.8050   38.9651   31.3588 N.2       1 <0>        -0.4803 
     25 N2         12.0059   36.9354   27.9021 N.am      1 <0>        -0.5000 
     26 O1         12.7267   41.3517   21.4892 O.co2     1 <0>        -0.8000 
     27 O2         14.1408   36.9652   27.2040 O.2       1 <0>        -0.5000 
     28 O3         10.8703   40.5670   20.5747 O.co2     1 <0>        -0.8000 
     29 O4          9.8168   40.6395   23.2552 O.3       1 <0>        -0.2850 
     30 F1         18.6551   41.3655   35.7681 F         1 <0>        -0.2000 
     31 F2         20.0889   39.9844   34.9269 F         1 <0>        -0.2000 
     32 F3         19.8163   41.9483   34.0551 F         1 <0>        -0.2000 
     33 S1         15.4166   38.1657   29.5034 S.3       1 <0>         0.0010 
     34 H1         11.0389   37.3607   30.4581 H         1 <0>         0.0600 
     35 H2         11.3108   38.5242   31.7368 H         1 <0>         0.0600 
     36 H3         11.0500   39.0701   30.0867 H         1 <0>         0.0600 
     37 H4         10.1438   43.5020   21.6972 H         1 <0>         0.0600 
     38 H5          9.0173   42.1670   21.4247 H         1 <0>         0.0600 
     39 H6          9.0020   43.0224   22.9579 H         1 <0>         0.0600 
     40 H7         11.9509   43.3061   23.3723 H         1 <0>         0.0600 
     41 H8         10.9265   42.6607   24.6428 H         1 <0>         0.0600 
     42 H9         12.3769   41.8102   24.1506 H         1 <0>         0.0600 
     43 H10         8.8879   37.1416   25.9794 H         1 <0>         0.1150 
     44 H11        13.0424   37.9421   25.1429 H         1 <0>         0.1150 
     45 H12        17.7260   38.2012   31.1075 H         1 <0>         0.1150 
     46 H13        14.8496   40.9025   32.8845 H         1 <0>         0.1150 
     47 H14        19.4509   39.0263   32.6706 H         1 <0>         0.1150 
     48 H15        16.5823   41.7251   34.4351 H         1 <0>         0.1150 
     49 H16         8.2401   39.0032   24.5011 H         1 <0>         0.1150 
     50 H17        12.4094   39.7661   23.6686 H         1 <0>         0.1150 
     51 H18        10.5691   35.7695   26.9907 H         1 <0>         0.0600 
     52 H19        12.1229   35.6700   26.2105 H         1 <0>         0.0600 
     53 H20        11.3680   37.1675   28.6484 H         1 <0>         0.3000 
@<TRIPOS>BOND
     1    1   13 1    
     2    1   34 1    
     3    1   35 1    
     4    1   36 1    
     5    2   22 1    
     6    2   37 1    
     7    2   38 1    
     8    2   39 1    
     9    3   22 1    
    10    3   40 1    
    11    3   41 1    
    12    3   42 1    
    13    4   10 ar   
    14    4   14 ar   
    15    4   43 1    
    16    5   11 ar   
    17    5   14 ar   
    18    5   44 1    
    19    6    8 ar   
    20    6   15 ar   
    21    6   45 1    
    22    7    9 ar   
    23    7   15 ar   
    24    7   46 1    
    25    8   16 ar   
    26    8   47 1    
    27    9   16 ar   
    28    9   48 1    
    29   10   17 ar   
    30   10   49 1    
    31   11   17 ar   
    32   11   50 1    
    33   12   14 1    
    34   12   25 1    
    35   12   51 1    
    36   12   52 1    
    37   13   18 2    
    38   13   24 1    
    39   15   19 1    
    40   16   23 1    
    41   17   29 1    
    42   18   20 1    
    43   18   33 1    
    44   19   24 2    
    45   19   33 1    
    46   20   25 am   BACKBONE|DICT|INTERRES
    47   20   27 2    
    48   21   22 1    
    49   21   26 1    
    50   21   28 2    
    51   22   29 1    
    52   23   30 1    
    53   23   31 1    
    54   23   32 1    
    55   25   53 1    
@<TRIPOS>SUBSTRUCTURE
     1 <0>         1 GROUP             0       ****    0 ROOT    
@<TRIPOS>MOLECULE
ppara-ligand
53   55    1
SMALL
USER_CHARGES


@<TRIPOS>ATOM
      1 C1         11.4397   38.3038   30.4627 C.3       1 <0>        -0.0650 
      2 C2         10.1358   43.0065   21.8623 C.3       1 <0>        -0.1800 
      3 C3         11.9233   42.4130   23.5616 C.3       1 <0>        -0.1800 
      4 C4         10.5995   37.6331   24.1818 C.ar      1 <0>        -0.1150 
      5 C5         10.4533   39.0507   26.1556 C.ar      1 <0>        -0.1150 
      6 C6         17.5807   38.5656   30.9506 C.ar      1 <0>        -0.1150 
      7 C7         16.1263   39.7745   32.4875 C.ar      1 <0>        -0.1150 
      8 C8         18.6946   38.9164   31.7441 C.ar      1 <0>        -0.1150 
      9 C9         17.2395   40.1159   33.2793 C.ar      1 <0>        -0.1150 
     10 C10        10.3596   38.7557   23.3664 C.ar      1 <0>        -0.1150 
     11 C11        10.2164   40.1693   25.3411 C.ar      1 <0>        -0.1150 
     12 C12        10.8611   36.5578   26.4670 C.3       1 <0>         0.1950 
     13 C13        12.8937   38.1344   30.1297 C.2       1 <0>         0.1693 
     14 C14        10.6433   37.7750   25.5841 C.ar      1 <0>        -0.1150 
     15 C15        16.2807   38.9847   31.3239 C.ar      1 <0>         0.0000 
     16 C16        18.5307   39.6807   32.9203 C.ar      1 <0>         0.1500 
     17 C17        10.1800   40.0312   23.9439 C.ar      1 <0>         0.0850 
     18 C18        13.4673   37.5859   28.9969 C.2       1 <0>        -0.2209 
     19 C19        15.0921   38.5737   30.5688 C.2       1 <0>         0.3009 
     20 C20        12.9226   37.0036   27.7478 C.2       1 <0>         0.6150 
     21 C21        11.5440   41.0593   21.4100 C.2       1 <0>         0.6000 
     22 C22        10.8933   41.8674   22.5461 C.3       1 <0>         0.2000 
     23 C23        19.7164   40.0147   33.8152 C.3       1 <0>         0.4500 
     24 N1         13.8304   38.6978   30.9956 N.2       1 <0>        -0.4803 
     25 N2         11.5949   36.8583   27.6894 N.am      1 <0>        -0.5000 
     26 O1         12.7884   40.9702   21.3659 O.co2     1 <0>        -0.8000 
     27 O2         13.6557   36.7170   26.8012 O.2       1 <0>        -0.5000 
     28 O3         10.7593   40.5650   20.5685 O.co2     1 <0>        -0.8000 
     29 O4          9.8486   41.1262   23.1852 O.3       1 <0>        -0.2850 
     30 F1         20.8780   39.7672   33.2077 F         1 <0>        -0.2000 
     31 F2         19.6837   41.3010   34.1653 F         1 <0>        -0.2000 
     32 F3         19.6490   39.2710   34.9196 F         1 <0>        -0.2000 
     33 S1         15.2045   37.7656   29.0236 S.3       1 <0>         0.0010 
     34 H1         10.8956   37.3654   30.4238 H         1 <0>         0.0600 
     35 H2         11.3037   38.7115   31.4642 H         1 <0>         0.0600 
     36 H3         10.9620   38.9923   29.7660 H         1 <0>         0.0600 
     37 H4         10.8002   43.6740   21.3141 H         1 <0>         0.0600 
     38 H5          9.4203   42.5784   21.1590 H         1 <0>         0.0600 
     39 H6          9.5594   43.5949   22.5664 H         1 <0>         0.0600 
     40 H7         12.6118   43.1110   23.0865 H         1 <0>         0.0600 
     41 H8         11.4305   42.9449   24.3752 H         1 <0>         0.0600 
     42 H9         12.5204   41.6122   23.9993 H         1 <0>         0.0600 
     43 H10        10.7377   36.6637   23.7253 H         1 <0>         0.1150 
     44 H11        10.4773   39.1856   27.2265 H         1 <0>         0.1150 
     45 H12        17.7396   37.9607   30.0703 H         1 <0>         0.1150 
     46 H13        15.1459   40.1067   32.7958 H         1 <0>         0.1150 
     47 H14        19.6754   38.5741   31.4498 H         1 <0>         0.1150 
     48 H15        17.1009   40.7013   34.1765 H         1 <0>         0.1150 
     49 H16        10.3023   38.6310   22.2957 H         1 <0>         0.1150 
     50 H17        10.0656   41.1397   25.7892 H         1 <0>         0.1150 
     51 H18         9.8822   36.1693   26.7451 H         1 <0>         0.0600 
     52 H19        11.3643   35.7708   25.9044 H         1 <0>         0.0600 
     53 H20        11.0523   37.1025   28.5037 H         1 <0>         0.3000 
@<TRIPOS>BOND
     1    1   13 1    
     2    1   34 1    
     3    1   35 1    
     4    1   36 1    
     5    2   22 1    
     6    2   37 1    
     7    2   38 1    
     8    2   39 1    
     9    3   22 1    
    10    3   40 1    
    11    3   41 1    
    12    3   42 1    
    13    4   10 ar   
    14    4   14 ar   
    15    4   43 1    
    16    5   11 ar   
    17    5   14 ar   
    18    5   44 1    
    19    6    8 ar   
    20    6   15 ar   
    21    6   45 1    
    22    7    9 ar   
    23    7   15 ar   
    24    7   46 1    
    25    8   16 ar   
    26    8   47 1    
    27    9   16 ar   
    28    9   48 1    
    29   10   17 ar   
    30   10   49 1    
    31   11   17 ar   
    32   11   50 1    
    33   12   14 1    
    34   12   25 1    
    35   12   51 1    
    36   12   52 1    
    37   13   18 2    
    38   13   24 1    
    39   15   19 1    
    40   16   23 1    
    41   17   29 1    
    42   18   20 1    
    43   18   33 1    
    44   19   24 2    
    45   19   33 1    
    46   20   25 am   BACKBONE|DICT|INTERRES
    47   20   27 2    
    48   21   22 1    
    49   21   26 1    
    50   21   28 2    
    51   22   29 1    
    52   23   30 1    
    53   23   31 1    
    54   23   32 1    
    55   25   53 1    
@<TRIPOS>SUBSTRUCTURE
     1 <0>         1 GROUP             0       ****    0 ROOT    
@<TRIPOS>MOLECULE
ppara-ligand
53   55    1
SMALL
USER_CHARGES


@<TRIPOS>ATOM
      1 C1         11.3915   38.1654   30.3565 C.3       1 <0>        -0.0650 
      2 C2         10.1149   42.9277   22.1662 C.3       1 <0>        -0.1800 
      3 C3         11.9985   42.1059   23.6422 C.3       1 <0>        -0.1800 
      4 C4         11.0039   37.4725   24.1486 C.ar      1 <0>        -0.1150 
      5 C5         10.6167   38.7753   26.1681 C.ar      1 <0>        -0.1150 
      6 C6         17.2540   38.9657   31.7640 C.ar      1 <0>        -0.1150 
      7 C7         15.6332   40.5465   32.6677 C.ar      1 <0>        -0.1150 
      8 C8         18.2267   39.4541   32.6545 C.ar      1 <0>        -0.1150 
      9 C9         16.6101   41.0407   33.5547 C.ar      1 <0>        -0.1150 
     10 C10        10.6163   38.5781   23.3664 C.ar      1 <0>        -0.1150 
     11 C11        10.2168   39.8718   25.3861 C.ar      1 <0>        -0.1150 
     12 C12        11.4707   36.3797   26.3879 C.3       1 <0>         0.1950 
     13 C13        12.8851   38.1655   30.2231 C.2       1 <0>         0.1693 
     14 C14        11.0238   37.5702   25.5548 C.ar      1 <0>        -0.1150 
     15 C15        15.9490   39.5057   31.7687 C.ar      1 <0>         0.0000 
     16 C16        17.9101   40.4897   33.5574 C.ar      1 <0>         0.1500 
     17 C17        10.2495   39.7927   23.9833 C.ar      1 <0>         0.0850 
     18 C18        13.6467   37.7578   29.1480 C.2       1 <0>        -0.2209 
     19 C19        14.9230   38.9554   30.8918 C.2       1 <0>         0.3009 
     20 C20        13.2914   37.2144   27.8209 C.2       1 <0>         0.6150 
     21 C21        11.4525   41.0162   21.3795 C.2       1 <0>         0.6000 
     22 C22        10.8887   41.6960   22.6444 C.3       1 <0>         0.2000 
     23 C23        18.9862   41.0177   34.4889 C.3       1 <0>         0.4500 
     24 N1         13.6227   38.8685   31.1851 N.2       1 <0>        -0.4803 
     25 N2         12.0467   36.7511   27.6714 N.am      1 <0>        -0.5000 
     26 O1         10.6167   40.5655   20.5680 O.co2     1 <0>        -0.8000 
     27 O2         14.0946   37.2279   26.8941 O.2       1 <0>        -0.5000 
     28 O3         12.6879   40.9657   21.2123 O.co2     1 <0>        -0.8000 
     29 O4          9.8686   40.8938   23.2574 O.3       1 <0>        -0.2850 
     30 F1         19.8165   41.7653   33.7738 F         1 <0>        -0.2000 
     31 F2         18.4814   41.7653   35.4650 F         1 <0>        -0.2000 
     32 F3         19.6691   40.0103   35.0347 F         1 <0>        -0.2000 
     33 S1         15.3328   38.1655   29.3684 S.3       1 <0>         0.0010 
     34 H1         10.9471   37.2115   30.0914 H         1 <0>         0.0600 
     35 H2         11.0754   38.3974   31.3698 H         1 <0>         0.0600 
     36 H3         10.9511   38.9237   29.7093 H         1 <0>         0.0600 
     37 H4         10.7720   43.6956   21.7555 H         1 <0>         0.0600 
     38 H5          9.4167   42.6267   21.3874 H         1 <0>         0.0600 
     39 H6          9.5264   43.3650   22.9679 H         1 <0>         0.0600 
     40 H7         12.6665   42.8490   23.2069 H         1 <0>         0.0600 
     41 H8         11.5743   42.5406   24.5475 H         1 <0>         0.0600 
     42 H9         12.6126   41.2530   23.9320 H         1 <0>         0.0600 
     43 H10        11.3024   36.5563   23.6600 H         1 <0>         0.1150 
     44 H11        10.6145   38.8758   27.2432 H         1 <0>         0.1150 
     45 H12        17.5219   38.1700   31.0838 H         1 <0>         0.1150 
     46 H13        14.6375   40.9653   32.6847 H         1 <0>         0.1150 
     47 H14        19.2233   39.0383   32.6400 H         1 <0>         0.1150 
     48 H15        16.3564   41.8428   34.2327 H         1 <0>         0.1150 
     49 H16        10.6144   38.4919   22.2906 H         1 <0>         0.1150 
     50 H17         9.9183   40.7915   25.8653 H         1 <0>         0.1150 
     51 H18        10.6020   35.7657   26.5898 H         1 <0>         0.0600 
     52 H19        12.1679   35.7602   25.8205 H         1 <0>         0.0600 
     53 H20        11.4336   36.7533   28.4725 H         1 <0>         0.3000 
@<TRIPOS>BOND
     1    1   13 1    
     2    1   34 1    
     3    1   35 1    
     4    1   36 1    
     5    2   22 1    
     6    2   37 1    
     7    2   38 1    
     8    2   39 1    
     9    3   22 1    
    10    3   40 1    
    11    3   41 1    
    12    3   42 1    
    13    4   10 ar   
    14    4   14 ar   
    15    4   43 1    
    16    5   11 ar   
    17    5   14 ar   
    18    5   44 1    
    19    6    8 ar   
    20    6   15 ar   
    21    6   45 1    
    22    7    9 ar   
    23    7   15 ar   
    24    7   46 1    
    25    8   16 ar   
    26    8   47 1    
    27    9   16 ar   
    28    9   48 1    
    29   10   17 ar   
    30   10   49 1    
    31   11   17 ar   
    32   11   50 1    
    33   12   14 1    
    34   12   25 1    
    35   12   51 1    
    36   12   52 1    
    37   13   18 2    
    38   13   24 1    
    39   15   19 1    
    40   16   23 1    
    41   17   29 1    
    42   18   20 1    
    43   18   33 1    
    44   19   24 2    
    45   19   33 1    
    46   20   25 am   BACKBONE|DICT|INTERRES
    47   20   27 2    
    48   21   22 1    
    49   21   26 1    
    50   21   28 2    
    51   22   29 1    
    52   23   30 1    
    53   23   31 1    
    54   23   32 1    
    55   25   53 1    
@<TRIPOS>SUBSTRUCTURE
     1 <0>         1 GROUP             0       ****    0 ROOT    
@<TRIPOS>MOLECULE
ppara-ligand
53   55    1
SMALL
USER_CHARGES


@<TRIPOS>ATOM
      1 C1         11.3982   38.3440   30.7909 C.3       1 <0>        -0.0650 
      2 C2          9.3974   42.3026   22.9149 C.3       1 <0>        -0.1800 
      3 C3         11.8592   42.1447   23.4482 C.3       1 <0>        -0.1800 
      4 C4          9.5700   37.8555   25.1558 C.ar      1 <0>        -0.1150 
      5 C5         11.9676   38.2514   25.1875 C.ar      1 <0>        -0.1150 
      6 C6         17.4010   38.9655   31.6222 C.ar      1 <0>        -0.1150 
      7 C7         15.8589   40.4626   32.7608 C.ar      1 <0>        -0.1150 
      8 C8         18.4439   39.3915   32.4657 C.ar      1 <0>        -0.1150 
      9 C9         16.9056   40.9031   33.5952 C.ar      1 <0>        -0.1150 
     10 C10         9.4350   38.7818   24.1002 C.ar      1 <0>        -0.1150 
     11 C11        11.8166   39.1989   24.1679 C.ar      1 <0>        -0.1150 
     12 C12        11.0272   36.5485   26.7906 C.3       1 <0>         0.1950 
     13 C13        12.8655   38.2835   30.5000 C.2       1 <0>         0.1693 
     14 C14        10.8446   37.5798   25.6968 C.ar      1 <0>        -0.1150 
     15 C15        16.0974   39.4838   31.7700 C.ar      1 <0>         0.0000 
     16 C16        18.2031   40.3663   33.4569 C.ar      1 <0>         0.1500 
     17 C17        10.5630   39.4643   23.5964 C.ar      1 <0>         0.0850 
     18 C18        13.5101   37.7655   29.3925 C.2       1 <0>        -0.2209 
     19 C19        14.9903   38.9655   30.9680 C.2       1 <0>         0.3009 
     20 C20        13.0307   37.0638   28.1804 C.2       1 <0>         0.6150 
     21 C21        11.0521   42.1420   21.0822 C.2       1 <0>         0.6000 
     22 C22        10.7226   41.6570   22.5103 C.3       1 <0>         0.2000 
     23 C23        19.3242   40.8582   34.3581 C.3       1 <0>         0.4500 
     24 N1         13.7186   38.9655   31.3679 N.2       1 <0>        -0.4803 
     25 N2         11.7069   37.0782   27.9685 N.am      1 <0>        -0.5000 
     26 O1         11.3142   43.3551   20.9157 O.co2     1 <0>        -0.8000 
     27 O2         13.8166   36.5377   27.3958 O.2       1 <0>        -0.5000 
     28 O3         11.0166   41.2907   20.1679 O.co2     1 <0>        -0.8000 
     29 O4         10.4735   40.2382   22.4620 O.3       1 <0>        -0.2850 
     30 F1         19.4802   42.1654   34.1679 F         1 <0>        -0.2000 
     31 F2         19.0166   40.6472   35.6354 F         1 <0>        -0.2000 
     32 F3         20.4768   40.2383   34.0981 F         1 <0>        -0.2000 
     33 S1         15.2223   38.1494   29.4257 S.3       1 <0>         0.0010 
     34 H1         10.9307   37.3654   30.7816 H         1 <0>         0.0600 
     35 H2         11.2163   38.7853   31.7679 H         1 <0>         0.0600 
     36 H3         10.8813   38.9668   30.0606 H         1 <0>         0.0600 
     37 H4          9.5278   43.3655   22.9679 H         1 <0>         0.0600 
     38 H5          8.6166   42.1655   22.1682 H         1 <0>         0.0600 
     39 H6          9.0426   41.9559   23.8855 H         1 <0>         0.0600 
     40 H7         11.9496   43.2320   23.4314 H         1 <0>         0.0600 
     41 H8         11.6746   41.8759   24.4876 H         1 <0>         0.0600 
     42 H9         12.8307   41.7513   23.1476 H         1 <0>         0.0600 
     43 H10         8.6967   37.3404   25.5289 H         1 <0>         0.1150 
     44 H11        12.9589   38.0490   25.5612 H         1 <0>         0.1150 
     45 H12        17.6113   38.2109   30.8789 H         1 <0>         0.1150 
     46 H13        14.8680   40.8719   32.8949 H         1 <0>         0.1150 
     47 H14        19.4300   38.9706   32.3381 H         1 <0>         0.1150 
     48 H15        16.7139   41.6532   34.3490 H         1 <0>         0.1150 
     49 H16         8.4649   38.9453   23.6619 H         1 <0>         0.1150 
     50 H17        12.6921   39.6796   23.7679 H         1 <0>         0.1150 
     51 H18        10.0543   36.1655   27.0813 H         1 <0>         0.0600 
     52 H19        11.5794   35.7073   26.3725 H         1 <0>         0.0600 
     53 H20        11.1271   37.5491   28.6469 H         1 <0>         0.3000 
@<TRIPOS>BOND
     1    1   13 1    
     2    1   34 1    
     3    1   35 1    
     4    1   36 1    
     5    2   22 1    
     6    2   37 1    
     7    2   38 1    
     8    2   39 1    
     9    3   22 1    
    10    3   40 1    
    11    3   41 1    
    12    3   42 1    
    13    4   10 ar   
    14    4   14 ar   
    15    4   43 1    
    16    5   11 ar   
    17    5   14 ar   
    18    5   44 1    
    19    6    8 ar   
    20    6   15 ar   
    21    6   45 1    
    22    7    9 ar   
    23    7   15 ar   
    24    7   46 1    
    25    8   16 ar   
    26    8   47 1    
    27    9   16 ar   
    28    9   48 1    
    29   10   17 ar   
    30   10   49 1    
    31   11   17 ar   
    32   11   50 1    
    33   12   14 1    
    34   12   25 1    
    35   12   51 1    
    36   12   52 1    
    37   13   18 2    
    38   13   24 1    
    39   15   19 1    
    40   16   23 1    
    41   17   29 1    
    42   18   20 1    
    43   18   33 1    
    44   19   24 2    
    45   19   33 1    
    46   20   25 am   BACKBONE|DICT|INTERRES
    47   20   27 2    
    48   21   22 1    
    49   21   26 1    
    50   21   28 2    
    51   22   29 1    
    52   23   30 1    
    53   23   31 1    
    54   23   32 1    
    55   25   53 1    
@<TRIPOS>SUBSTRUCTURE
     1 <0>         1 GROUP             0       ****    0 ROOT    
