@<TRIPOS>MOLECULE
prgr-ligand
49   51    1
SMALL
USER_CHARGES


@<TRIPOS>ATOM
      1 C1         -3.1535  -11.0938   21.8935 C.3       1 <0>        -0.0650 
      2 C2         -4.0562   -6.6134   20.5118 C.3       1 <0>        -0.5305 
      3 C3          0.1468   -9.1612   21.8574 C.ar      1 <0>        -0.1150 
      4 C4         -0.0157   -8.2761   22.9372 C.ar      1 <0>        -0.1150 
      5 C5         -0.8790  -10.0679   21.5342 C.ar      1 <0>        -0.1150 
      6 C6         -1.2011   -8.3037   23.6942 C.ar      1 <0>        -0.1150 
      7 C7         -4.4825   -8.2166   27.5896 C.ar      1 <0>        -0.1150 
      8 C8         -4.5792   -8.7128   28.9032 C.ar      1 <0>        -0.1150 
      9 C9         -2.8093   -9.8966   27.0778 C.ar      1 <0>        -0.1150 
     10 C10        -2.7087   -5.9373   25.1736 C.3       1 <0>        -0.0833 
     11 C11        -3.0381   -4.8102   24.2018 C.3       1 <0>         0.0588 
     12 C12        -4.4023   -6.7290   23.6089 C.3       1 <0>         0.0588 
     13 C13        -3.5005   -9.2209   24.2416 C.3       1 <0>         0.2050 
     14 C14        -3.9138  -10.2937   30.6784 C.1       1 <0>         0.3950 
     15 C15        -2.0715  -10.1029   22.2891 C.ar      1 <0>        -0.1150 
     16 C16        -3.5944   -8.7964   26.6542 C.ar      1 <0>         0.2100 
     17 C17        -2.2336   -9.2187   23.3887 C.ar      1 <0>        -0.1150 
     18 C18        -3.7898   -9.8050   29.3126 C.ar      1 <0>         0.0350 
     19 C19        -2.9005  -10.4016   28.3896 C.ar      1 <0>         0.1800 
     20 C20        -3.8834   -6.8887   25.0436 C.3       1 <0>         0.1867 
     21 N1         -4.0139  -10.6801   31.7646 N.1       1 <0>        -0.4300 
     22 N2         -3.6812   -5.5425   23.0955 N.pl3     1 <0>        -0.5376 
     23 N3         -3.5171   -8.2573   25.3477 N.pl3     1 <0>        -0.6300 
     24 O1         -1.6485   -6.3681   21.6697 O.2       1 <0>        -0.4680 
     25 O2         -2.8582   -4.2348   20.9783 O.2       1 <0>        -0.4680 
     26 S1         -2.8949   -5.6047   21.5109 S.o2      1 <0>         0.9349 
     27 Cl1        -1.9079  -11.7507   28.8253 Cl        1 <0>        -0.1800 
     28 H1         -2.8301  -11.7270   21.0669 H         1 <0>         0.0600 
     29 H2         -3.4083  -11.7461   22.7286 H         1 <0>         0.0600 
     30 H3         -4.0532  -10.5664   21.5759 H         1 <0>         0.0600 
     31 H4         -3.6363   -6.7555   19.5168 H         1 <0>         0.1950 
     32 H5         -5.0143   -6.1034   20.4290 H         1 <0>         0.1950 
     33 H6         -4.1935   -7.5827   20.9892 H         1 <0>         0.1950 
     34 H7          1.0556   -9.1417   21.2740 H         1 <0>         0.1150 
     35 H8          0.7675   -7.5747   23.1845 H         1 <0>         0.1150 
     36 H9         -0.7443  -10.7382   20.6977 H         1 <0>         0.1150 
     37 H10        -1.3117   -7.6122   24.5155 H         1 <0>         0.1150 
     38 H11        -5.1149   -7.3888   27.3051 H         1 <0>         0.1150 
     39 H12        -5.2686   -8.2496   29.5947 H         1 <0>         0.1150 
     40 H13        -2.1242  -10.3859   26.4070 H         1 <0>         0.1150 
     41 H14        -1.7864   -6.4344   24.8731 H         1 <0>         0.0600 
     42 H15        -2.5669   -5.5820   26.1943 H         1 <0>         0.0600 
     43 H16        -2.1610   -4.2619   23.8581 H         1 <0>         0.0733 
     44 H17        -3.7562   -4.0990   24.6102 H         1 <0>         0.0733 
     45 H18        -5.4745   -6.5355   23.5780 H         1 <0>         0.0733 
     46 H19        -4.1861   -7.5958   22.9843 H         1 <0>         0.0733 
     47 H20        -3.6883  -10.2089   24.6575 H         1 <0>         0.0600 
     48 H21        -4.3389   -9.0512   23.5677 H         1 <0>         0.0600 
     49 H22        -4.6683   -6.6112   25.7472 H         1 <0>         0.0600 
@<TRIPOS>BOND
     1    1   15 1    
     2    1   28 1    
     3    1   29 1    
     4    1   30 1    
     5    2   26 1    
     6    2   31 1    
     7    2   32 1    
     8    2   33 1    
     9    3    4 ar   
    10    3    5 ar   
    11    3   34 1    
    12    4    6 ar   
    13    4   35 1    
    14    5   15 ar   
    15    5   36 1    
    16    6   17 ar   
    17    6   37 1    
    18    7    8 ar   
    19    7   16 ar   
    20    7   38 1    
    21    8   18 ar   
    22    8   39 1    
    23    9   16 ar   
    24    9   19 ar   
    25    9   40 1    
    26   10   11 1    
    27   10   20 1    
    28   10   41 1    
    29   10   42 1    
    30   11   22 1    
    31   11   43 1    
    32   11   44 1    
    33   12   20 1    
    34   12   22 1    
    35   12   45 1    
    36   12   46 1    
    37   13   17 1    
    38   13   23 1    
    39   13   47 1    
    40   13   48 1    
    41   14   18 1    
    42   14   21 3    
    43   15   17 ar   
    44   16   23 1    
    45   18   19 ar   
    46   19   27 1    
    47   20   23 1    
    48   20   49 1    
    49   22   26 1    
    50   24   26 2    
    51   25   26 2    
@<TRIPOS>SUBSTRUCTURE
     1 <0>         1 GROUP             0       ****    0 ROOT    
@<TRIPOS>MOLECULE
prgr-ligand
49   51    1
SMALL
USER_CHARGES


@<TRIPOS>ATOM
      1 C1         -3.1710  -11.1968   21.6765 C.3       1 <0>        -0.0650 
      2 C2         -1.6299   -6.6587   21.6562 C.3       1 <0>        -0.5305 
      3 C3          0.1787   -9.3560   21.8134 C.ar      1 <0>        -0.1150 
      4 C4          0.0079   -8.5110   22.9236 C.ar      1 <0>        -0.1150 
      5 C5         -0.8607  -10.2204   21.4242 C.ar      1 <0>        -0.1150 
      6 C6         -1.1996   -8.5364   23.6449 C.ar      1 <0>        -0.1150 
      7 C7         -4.5324   -8.5168   27.4461 C.ar      1 <0>        -0.1150 
      8 C8         -4.5659   -9.0208   28.7597 C.ar      1 <0>        -0.1150 
      9 C9         -2.6903  -10.0053   26.9215 C.ar      1 <0>        -0.1150 
     10 C10        -2.9254   -6.0848   25.0231 C.3       1 <0>        -0.0833 
     11 C11        -3.3418   -4.9762   24.0634 C.3       1 <0>         0.0588 
     12 C12        -4.5926   -6.9745   23.4828 C.3       1 <0>         0.0588 
     13 C13        -3.5376   -9.4111   24.0887 C.3       1 <0>         0.2050 
     14 C14        -3.7211  -10.5207   30.5290 C.1       1 <0>         0.3950 
     15 C15        -2.0754  -10.2528   22.1429 C.ar      1 <0>        -0.1150 
     16 C16        -3.5930   -8.9966   26.5042 C.ar      1 <0>         0.2100 
     17 C17        -2.2464   -9.4095   23.2728 C.ar      1 <0>        -0.1150 
     18 C18        -3.6599  -10.0211   29.1628 C.ar      1 <0>         0.0350 
     19 C19        -2.7174  -10.5175   28.2334 C.ar      1 <0>         0.1800 
     20 C20        -4.0401   -7.1077   24.9076 C.3       1 <0>         0.1867 
     21 N1         -3.7714  -10.9161   31.6153 N.1       1 <0>        -0.4300 
     22 N2         -3.9565   -5.7426   22.9640 N.pl3     1 <0>        -0.5376 
     23 N3         -3.5834   -8.4518   25.1978 N.pl3     1 <0>        -0.6300 
     24 O1         -2.8581   -4.3554   21.0365 O.2       1 <0>        -0.4680 
     25 O2         -4.0546   -6.5316   20.4664 O.2       1 <0>        -0.4680 
     26 S1         -3.1953   -5.7479   21.3660 S.o2      1 <0>         0.9349 
     27 Cl1        -1.5814  -11.7511   28.6611 Cl        1 <0>        -0.1800 
     28 H1         -2.8403  -11.8049   20.8341 H         1 <0>         0.0600 
     29 H2         -3.4675  -11.8749   22.4765 H         1 <0>         0.0600 
     30 H3         -4.0468  -10.6325   21.3554 H         1 <0>         0.0600 
     31 H4         -1.0539   -6.6767   20.7318 H         1 <0>         0.1950 
     32 H5         -1.8464   -7.6796   21.9657 H         1 <0>         0.1950 
     33 H6         -1.0565   -6.1513   22.4309 H         1 <0>         0.1950 
     34 H7          1.1045   -9.3381   21.2573 H         1 <0>         0.1150 
     35 H8          0.8016   -7.8419   23.2216 H         1 <0>         0.1150 
     36 H9         -0.7192  -10.8598   20.5651 H         1 <0>         0.1150 
     37 H10        -1.3161   -7.8757   24.4904 H         1 <0>         0.1150 
     38 H11        -5.2527   -7.7623   27.1666 H         1 <0>         0.1150 
     39 H12        -5.2968   -8.6354   29.4563 H         1 <0>         0.1150 
     40 H13        -1.9607  -10.4171   26.2457 H         1 <0>         0.1150 
     41 H14        -1.9790   -6.5215   24.7042 H         1 <0>         0.0600 
     42 H15        -2.7888   -5.7260   26.0433 H         1 <0>         0.0600 
     43 H16        -2.5069   -4.3723   23.7080 H         1 <0>         0.0733 
     44 H17        -4.0960   -4.3136   24.4879 H         1 <0>         0.0733 
     45 H18        -5.6753   -6.8486   23.4711 H         1 <0>         0.0733 
     46 H19        -4.3332   -7.8230   22.8498 H         1 <0>         0.0733 
     47 H20        -3.7404  -10.4002   24.4949 H         1 <0>         0.0600 
     48 H21        -4.3556   -9.2361   23.3915 H         1 <0>         0.0600 
     49 H22        -4.8287   -6.8834   25.6259 H         1 <0>         0.0600 
@<TRIPOS>BOND
     1    1   15 1    
     2    1   28 1    
     3    1   29 1    
     4    1   30 1    
     5    2   26 1    
     6    2   31 1    
     7    2   32 1    
     8    2   33 1    
     9    3    4 ar   
    10    3    5 ar   
    11    3   34 1    
    12    4    6 ar   
    13    4   35 1    
    14    5   15 ar   
    15    5   36 1    
    16    6   17 ar   
    17    6   37 1    
    18    7    8 ar   
    19    7   16 ar   
    20    7   38 1    
    21    8   18 ar   
    22    8   39 1    
    23    9   16 ar   
    24    9   19 ar   
    25    9   40 1    
    26   10   11 1    
    27   10   20 1    
    28   10   41 1    
    29   10   42 1    
    30   11   22 1    
    31   11   43 1    
    32   11   44 1    
    33   12   20 1    
    34   12   22 1    
    35   12   45 1    
    36   12   46 1    
    37   13   17 1    
    38   13   23 1    
    39   13   47 1    
    40   13   48 1    
    41   14   18 1    
    42   14   21 3    
    43   15   17 ar   
    44   16   23 1    
    45   18   19 ar   
    46   19   27 1    
    47   20   23 1    
    48   20   49 1    
    49   22   26 1    
    50   24   26 2    
    51   25   26 2    
@<TRIPOS>SUBSTRUCTURE
     1 <0>         1 GROUP             0       ****    0 ROOT    
@<TRIPOS>MOLECULE
prgr-ligand
49   51    1
SMALL
USER_CHARGES


@<TRIPOS>ATOM
      1 C1          0.4370   -9.2713   21.5752 C.3       1 <0>        -0.0650 
      2 C2         -2.5583   -6.5465   20.1363 C.3       1 <0>        -0.5305 
      3 C3         -2.4584  -11.5932   20.7108 C.ar      1 <0>        -0.1150 
      4 C4         -3.2555  -11.5234   21.8644 C.ar      1 <0>        -0.1150 
      5 C5         -1.2595  -10.8720   20.6572 C.ar      1 <0>        -0.1150 
      6 C6         -2.8066  -10.8011   22.9871 C.ar      1 <0>        -0.1150 
      7 C7         -1.5695  -10.1221   27.0588 C.ar      1 <0>        -0.1150 
      8 C8         -2.0327  -10.6873   28.2571 C.ar      1 <0>        -0.1150 
      9 C9         -3.6836   -8.9591   26.7800 C.ar      1 <0>        -0.1150 
     10 C10        -2.7102   -6.3085   25.2108 C.3       1 <0>        -0.0833 
     11 C11        -2.9850   -5.2487   24.1314 C.3       1 <0>         0.0588 
     12 C12        -1.9380   -7.1123   23.1384 C.3       1 <0>         0.0588 
     13 C13        -0.9996   -9.5509   24.2547 C.3       1 <0>         0.2050 
     14 C14        -3.7201  -10.8593   30.0344 C.1       1 <0>         0.3950 
     15 C15        -0.8076  -10.1245   21.7603 C.ar      1 <0>        -0.1150 
     16 C16        -2.3901   -9.2639   26.2807 C.ar      1 <0>         0.2100 
     17 C17        -1.5527  -10.1519   22.9670 C.ar      1 <0>        -0.1150 
     18 C18        -3.2992  -10.3388   28.7497 C.ar      1 <0>         0.0350 
     19 C19        -4.1234   -9.4562   28.0217 C.ar      1 <0>         0.1800 
     20 C20        -2.6282   -7.6103   24.4068 C.3       1 <0>         0.1867 
     21 N1         -4.0576  -11.2674   31.0575 N.1       1 <0>        -0.4300 
     22 N2         -2.4581   -5.7881   22.8648 N.pl3     1 <0>        -0.5376 
     23 N3         -1.9165   -8.7241   25.0581 N.pl3     1 <0>        -0.6300 
     24 O1         -3.2609   -4.1512   21.0577 O.2       1 <0>        -0.4680 
     25 O2         -4.7205   -6.1511   21.6752 O.2       1 <0>        -0.4680 
     26 S1         -3.3983   -5.5611   21.4333 S.o2      1 <0>         0.9349 
     27 Cl1        -5.6539   -8.9511   28.6526 Cl        1 <0>        -0.1800 
     28 H1          0.9624   -9.5474   20.6597 H         1 <0>         0.0600 
     29 H2          0.1669   -8.2206   21.4807 H         1 <0>         0.0600 
     30 H3          1.1417   -9.3511   22.3978 H         1 <0>         0.0600 
     31 H4         -2.9049   -6.2127   19.1582 H         1 <0>         0.1950 
     32 H5         -2.8176   -7.5957   20.2577 H         1 <0>         0.1950 
     33 H6         -1.4819   -6.4133   20.2056 H         1 <0>         0.1950 
     34 H7         -2.7833  -12.1771   19.8609 H         1 <0>         0.1150 
     35 H8         -4.1626  -12.1030   21.9298 H         1 <0>         0.1150 
     36 H9         -0.6958  -10.8785   19.7392 H         1 <0>         0.1150 
     37 H10        -3.3916  -10.8184   23.8947 H         1 <0>         0.1150 
     38 H11        -0.5554  -10.3554   26.7751 H         1 <0>         0.1150 
     39 H12        -1.3852  -11.3459   28.8205 H         1 <0>         0.1150 
     40 H13        -4.3621   -8.3227   26.2349 H         1 <0>         0.1150 
     41 H14        -1.7676   -6.1003   25.7179 H         1 <0>         0.0600 
     42 H15        -3.4880   -6.3064   25.9734 H         1 <0>         0.0600 
     43 H16        -2.5310   -4.2865   24.3623 H         1 <0>         0.0733 
     44 H17        -4.0581   -5.0990   24.0431 H         1 <0>         0.0733 
     45 H18        -2.1302   -7.7796   22.3082 H         1 <0>         0.0733 
     46 H19        -0.8594   -7.0163   23.2685 H         1 <0>         0.0733 
     47 H20        -0.1150   -8.9488   24.0679 H         1 <0>         0.0600 
     48 H21        -0.6221  -10.4174   24.7881 H         1 <0>         0.0600 
     49 H22        -3.6347   -7.9354   24.1391 H         1 <0>         0.0600 
@<TRIPOS>BOND
     1    1   15 1    
     2    1   28 1    
     3    1   29 1    
     4    1   30 1    
     5    2   26 1    
     6    2   31 1    
     7    2   32 1    
     8    2   33 1    
     9    3    4 ar   
    10    3    5 ar   
    11    3   34 1    
    12    4    6 ar   
    13    4   35 1    
    14    5   15 ar   
    15    5   36 1    
    16    6   17 ar   
    17    6   37 1    
    18    7    8 ar   
    19    7   16 ar   
    20    7   38 1    
    21    8   18 ar   
    22    8   39 1    
    23    9   16 ar   
    24    9   19 ar   
    25    9   40 1    
    26   10   11 1    
    27   10   20 1    
    28   10   41 1    
    29   10   42 1    
    30   11   22 1    
    31   11   43 1    
    32   11   44 1    
    33   12   20 1    
    34   12   22 1    
    35   12   45 1    
    36   12   46 1    
    37   13   17 1    
    38   13   23 1    
    39   13   47 1    
    40   13   48 1    
    41   14   18 1    
    42   14   21 3    
    43   15   17 ar   
    44   16   23 1    
    45   18   19 ar   
    46   19   27 1    
    47   20   23 1    
    48   20   49 1    
    49   22   26 1    
    50   24   26 2    
    51   25   26 2    
@<TRIPOS>SUBSTRUCTURE
     1 <0>         1 GROUP             0       ****    0 ROOT    
@<TRIPOS>MOLECULE
prgr-ligand
49   51    1
SMALL
USER_CHARGES


@<TRIPOS>ATOM
      1 C1          0.2959   -9.2958   21.6769 C.3       1 <0>        -0.0650 
      2 C2         -4.0134   -8.1197   21.0576 C.3       1 <0>        -0.5305 
      3 C3         -2.8076  -11.5214   21.4580 C.ar      1 <0>        -0.1150 
      4 C4         -3.4789  -11.2075   22.6559 C.ar      1 <0>        -0.1150 
      5 C5         -1.5672  -10.9228   21.1739 C.ar      1 <0>        -0.1150 
      6 C6         -2.9029  -10.3027   23.5670 C.ar      1 <0>        -0.1150 
      7 C7         -1.6177   -9.7778   26.7044 C.ar      1 <0>        -0.1150 
      8 C8         -2.0065  -10.5521   27.8158 C.ar      1 <0>        -0.1150 
      9 C9         -3.5414   -8.3428   27.0216 C.ar      1 <0>        -0.1150 
     10 C10        -2.0601   -5.4798   24.1578 C.3       1 <0>        -0.0833 
     11 C11        -3.1819   -4.8317   23.3557 C.3       1 <0>         0.0588 
     12 C12        -3.9585   -6.9605   23.8828 C.3       1 <0>         0.0588 
     13 C13        -1.1252   -8.5172   24.1440 C.3       1 <0>         0.2050 
     14 C14        -3.5400  -10.9642   29.7252 C.1       1 <0>         0.3950 
     15 C15        -1.0076   -9.9772   22.0608 C.ar      1 <0>        -0.1150 
     16 C16        -2.3768   -8.6531   26.2789 C.ar      1 <0>         0.2100 
     17 C17        -1.6872   -9.6387   23.2617 C.ar      1 <0>        -0.1150 
     18 C18        -3.1536  -10.2017   28.5508 C.ar      1 <0>         0.0350 
     19 C19        -3.9046   -9.0832   28.1522 C.ar      1 <0>         0.1800 
     20 C20        -2.7773   -6.6723   24.8068 C.3       1 <0>         0.1867 
     21 N1         -3.8547  -11.5692   30.6577 N.1       1 <0>        -0.4300 
     22 N2         -3.8860   -5.9758   22.7960 N.pl3     1 <0>        -0.5376 
     23 N3         -1.9971   -7.8812   25.1483 N.pl3     1 <0>        -0.6300 
     24 O1         -1.8804   -6.5522   21.2322 O.2       1 <0>        -0.4680 
     25 O2         -4.0055   -5.5485   20.2603 O.2       1 <0>        -0.4680 
     26 S1         -3.3459   -6.4431   21.2224 S.o2      1 <0>         0.9349 
     27 Cl1        -5.2582   -8.5512   29.0577 Cl        1 <0>        -0.1800 
     28 H1          0.7417   -9.7512   20.7926 H         1 <0>         0.0600 
     29 H2          0.1307   -8.2418   21.4577 H         1 <0>         0.0600 
     30 H3          1.0140   -9.3511   22.4912 H         1 <0>         0.0600 
     31 H4         -4.0582   -8.3765   20.0181 H         1 <0>         0.1950 
     32 H5         -4.9777   -8.2149   21.5429 H         1 <0>         0.1950 
     33 H6         -3.3157   -8.7966   21.5087 H         1 <0>         0.1950 
     34 H7         -3.2381  -12.2309   20.7659 H         1 <0>         0.1150 
     35 H8         -4.4246  -11.6763   22.8844 H         1 <0>         0.1150 
     36 H9         -1.0617  -11.1689   20.2522 H         1 <0>         0.1150 
     37 H10        -3.4527  -10.0844   24.4674 H         1 <0>         0.1150 
     38 H11        -0.7189  -10.0829   26.1927 H         1 <0>         0.1150 
     39 H12        -1.4061  -11.4016   28.1094 H         1 <0>         0.1150 
     40 H13        -4.2011   -7.5292   26.7690 H         1 <0>         0.1150 
     41 H14        -1.2706   -5.7516   23.4576 H         1 <0>         0.0600 
     42 H15        -1.6582   -4.7936   24.9009 H         1 <0>         0.0600 
     43 H16        -2.8585   -4.1511   22.5701 H         1 <0>         0.0733 
     44 H17        -3.8320   -4.2763   24.0300 H         1 <0>         0.0733 
     45 H18        -4.8914   -6.8028   24.4254 H         1 <0>         0.0733 
     46 H19        -3.9878   -7.9805   23.5325 H         1 <0>         0.0733 
     47 H20        -0.7703   -7.7419   23.4737 H         1 <0>         0.0600 
     48 H21        -0.2149   -8.8863   24.6117 H         1 <0>         0.0600 
     49 H22        -3.1592   -6.2210   25.7194 H         1 <0>         0.0600 
@<TRIPOS>BOND
     1    1   15 1    
     2    1   28 1    
     3    1   29 1    
     4    1   30 1    
     5    2   26 1    
     6    2   31 1    
     7    2   32 1    
     8    2   33 1    
     9    3    4 ar   
    10    3    5 ar   
    11    3   34 1    
    12    4    6 ar   
    13    4   35 1    
    14    5   15 ar   
    15    5   36 1    
    16    6   17 ar   
    17    6   37 1    
    18    7    8 ar   
    19    7   16 ar   
    20    7   38 1    
    21    8   18 ar   
    22    8   39 1    
    23    9   16 ar   
    24    9   19 ar   
    25    9   40 1    
    26   10   11 1    
    27   10   20 1    
    28   10   41 1    
    29   10   42 1    
    30   11   22 1    
    31   11   43 1    
    32   11   44 1    
    33   12   20 1    
    34   12   22 1    
    35   12   45 1    
    36   12   46 1    
    37   13   17 1    
    38   13   23 1    
    39   13   47 1    
    40   13   48 1    
    41   14   18 1    
    42   14   21 3    
    43   15   17 ar   
    44   16   23 1    
    45   18   19 ar   
    46   19   27 1    
    47   20   23 1    
    48   20   49 1    
    49   22   26 1    
    50   24   26 2    
    51   25   26 2    
@<TRIPOS>SUBSTRUCTURE
     1 <0>         1 GROUP             0       ****    0 ROOT    
