@<TRIPOS>MOLECULE
ptn1-ligand
22   23    1
SMALL
USER_CHARGES


@<TRIPOS>ATOM
      1 C1         46.3719   11.0465    1.9678 C.ar      1 <0>        -0.3593 
      2 C2         46.3620   12.2795    2.6497 C.ar      1 <0>        -0.1127 
      3 C3         45.6756   10.9359    0.7505 C.ar      1 <0>         0.2583 
      4 C4         47.1954   16.0228    3.5272 C.3       1 <0>         0.1400 
      5 C5         45.6669   13.3832    2.1113 C.ar      1 <0>         0.1744 
      6 C6         45.4867   14.7479    2.5700 C.2       1 <0>        -0.0945 
      7 C7         44.7112   15.4675    1.6817 C.2       1 <0>        -0.0650 
      8 C8         45.0175   13.1283    0.8641 C.ar      1 <0>         0.3359 
      9 C9         47.4959   16.9482    4.7163 C.2       1 <0>         0.6000 
     10 C10        44.2448   16.8672    1.7336 C.2       1 <0>         0.7150 
     11 N1         44.9964   11.9487    0.1748 N.ar      1 <0>        -0.5090 
     12 O1         48.6448   17.4416    4.7678 O.co2     1 <0>        -0.8000 
     13 O2         44.4765   17.5310    2.7678 O.co2     1 <0>        -0.8000 
     14 O3         46.6079   17.1778    5.5678 O.co2     1 <0>        -0.8000 
     15 O4         43.6089   17.3482    0.7679 O.co2     1 <0>        -0.8000 
     16 O5         46.0081   15.2515    3.7167 O.3       1 <0>        -0.3000 
     17 S1         44.2448   14.5718    0.2568 S.3       1 <0>        -0.0656 
     18 H1         46.9124   10.2011    2.3677 H         1 <0>         0.1797 
     19 H2         46.8992   12.3942    3.5779 H         1 <0>         0.1629 
     20 H3         45.6722    9.9991    0.2126 H         1 <0>         0.0799 
     21 H4         47.1258   16.6474    2.6354 H         1 <0>         0.0300 
     22 H5         48.0392   15.3481    3.3776 H         1 <0>         0.0300 
@<TRIPOS>BOND
     1    1    2 ar   
     2    1    3 ar   
     3    1   18 1    
     4    2    5 ar   
     5    2   19 1    
     6    3   11 ar   
     7    3   20 1    
     8    4    9 1    
     9    4   16 1    
    10    4   21 1    
    11    4   22 1    
    12    5    6 1    
    13    5    8 ar   
    14    6    7 2    
    15    6   16 1    
    16    7   10 1    
    17    7   17 1    
    18    8   11 ar   
    19    8   17 1    
    20    9   12 1    
    21    9   14 2    
    22   10   13 1    
    23   10   15 2    
@<TRIPOS>SUBSTRUCTURE
     1 <0>         1 GROUP             0       ****    0 ROOT    
@<TRIPOS>MOLECULE
ptn1-ligand
22   23    1
SMALL
USER_CHARGES


@<TRIPOS>ATOM
      1 C1         46.4922   10.8985    1.9678 C.ar      1 <0>        -0.3593 
      2 C2         46.4217   12.1634    2.5855 C.ar      1 <0>        -0.1127 
      3 C3         45.7955   10.6881    0.7639 C.ar      1 <0>         0.2583 
      4 C4         47.0595   15.9944    3.3213 C.3       1 <0>         0.1400 
      5 C5         45.6813   13.2054    1.9867 C.ar      1 <0>         0.1744 
      6 C6         45.4431   14.5864    2.3695 C.2       1 <0>        -0.0945 
      7 C7         44.6448   15.2205    1.4362 C.2       1 <0>        -0.0650 
      8 C8         45.0448   12.8521    0.7568 C.ar      1 <0>         0.3359 
      9 C9         47.3256   16.9106    4.5282 C.2       1 <0>         0.6000 
     10 C10        44.0862   16.5873    1.3887 C.2       1 <0>         0.7150 
     11 N1         45.0677   11.6345    0.1376 N.ar      1 <0>        -0.5090 
     12 O1         46.6448   16.7804    5.5678 O.co2     1 <0>        -0.8000 
     13 O2         43.4448   16.9482    0.3761 O.co2     1 <0>        -0.8000 
     14 O3         48.2448   17.7482    4.4195 O.co2     1 <0>        -0.8000 
     15 O4         44.2448   17.3484    2.3677 O.co2     1 <0>        -0.8000 
     16 O5         45.9103   15.1655    3.5050 O.3       1 <0>        -0.3000 
     17 S1         44.2448   14.2305    0.0538 S.3       1 <0>        -0.0656 
     18 H1         47.0809   10.1014    2.3962 H         1 <0>         0.1797 
     19 H2         46.9528   12.3522    3.5060 H         1 <0>         0.1629 
     20 H3         45.8362    9.7246    0.2770 H         1 <0>         0.0799 
     21 H4         46.9534   16.6230    2.4356 H         1 <0>         0.0300 
     22 H5         47.9347   15.3621    3.1678 H         1 <0>         0.0300 
@<TRIPOS>BOND
     1    1    2 ar   
     2    1    3 ar   
     3    1   18 1    
     4    2    5 ar   
     5    2   19 1    
     6    3   11 ar   
     7    3   20 1    
     8    4    9 1    
     9    4   16 1    
    10    4   21 1    
    11    4   22 1    
    12    5    6 1    
    13    5    8 ar   
    14    6    7 2    
    15    6   16 1    
    16    7   10 1    
    17    7   17 1    
    18    8   11 ar   
    19    8   17 1    
    20    9   12 1    
    21    9   14 2    
    22   10   13 1    
    23   10   15 2    
@<TRIPOS>SUBSTRUCTURE
     1 <0>         1 GROUP             0       ****    0 ROOT    
@<TRIPOS>MOLECULE
ptn1-ligand
22   23    1
SMALL
USER_CHARGES


@<TRIPOS>ATOM
      1 C1         46.1101   10.7913    1.7614 C.ar      1 <0>        -0.3593 
      2 C2         45.8461   12.0438    2.3474 C.ar      1 <0>        -0.1127 
      3 C3         45.7933   10.5955    0.4034 C.ar      1 <0>         0.2583 
      4 C4         46.1725   15.8335    3.3305 C.3       1 <0>         0.1400 
      5 C5         45.2987   13.0875    1.5678 C.ar      1 <0>         0.1744 
      6 C6         44.9503   14.4572    1.8803 C.2       1 <0>        -0.0945 
      7 C7         44.4829   15.1313    0.7679 C.2       1 <0>        -0.0650 
      8 C8         45.0448   12.7537    0.2030 C.ar      1 <0>         0.3359 
      9 C9         45.8532   16.7825    4.4832 C.2       1 <0>         0.6000 
     10 C10        44.0296   16.5332    0.5691 C.2       1 <0>         0.7150 
     11 N1         45.2629   11.5449   -0.3962 N.ar      1 <0>        -0.5090 
     12 O1         46.7995   17.3461    5.0819 O.co2     1 <0>        -0.8000 
     13 O2         43.8447   17.2907    1.5457 O.co2     1 <0>        -0.8000 
     14 O3         44.6448   16.9482    4.7678 O.co2     1 <0>        -0.8000 
     15 O4         43.8448   16.9482   -0.5950 O.co2     1 <0>        -0.8000 
     16 O5         45.0537   14.9830    3.1164 O.3       1 <0>        -0.3000 
     17 S1         44.4547   14.1445   -0.6785 S.3       1 <0>        -0.0656 
     18 H1         46.5426    9.9907    2.3436 H         1 <0>         0.1797 
     19 H2         46.0777   12.2188    3.3872 H         1 <0>         0.1629 
     20 H3         45.9808    9.6388   -0.0622 H         1 <0>         0.0799 
     21 H4         46.4119   16.4279    2.4472 H         1 <0>         0.0300 
     22 H5         47.0495   15.2324    3.5740 H         1 <0>         0.0300 
@<TRIPOS>BOND
     1    1    2 ar   
     2    1    3 ar   
     3    1   18 1    
     4    2    5 ar   
     5    2   19 1    
     6    3   11 ar   
     7    3   20 1    
     8    4    9 1    
     9    4   16 1    
    10    4   21 1    
    11    4   22 1    
    12    5    6 1    
    13    5    8 ar   
    14    6    7 2    
    15    6   16 1    
    16    7   10 1    
    17    7   17 1    
    18    8   11 ar   
    19    8   17 1    
    20    9   12 1    
    21    9   14 2    
    22   10   13 1    
    23   10   15 2    
@<TRIPOS>SUBSTRUCTURE
     1 <0>         1 GROUP             0       ****    0 ROOT    
@<TRIPOS>MOLECULE
ptn1-ligand
22   23    1
SMALL
USER_CHARGES


@<TRIPOS>ATOM
      1 C1         45.5433   10.7245    0.8282 C.ar      1 <0>        -0.3593 
      2 C2         45.6156   11.8089    1.7237 C.ar      1 <0>        -0.1127 
      3 C3         45.0559   10.9516   -0.4739 C.ar      1 <0>         0.2583 
      4 C4         46.6988   15.3004    3.5179 C.3       1 <0>         0.1400 
      5 C5         45.1962   13.0943    1.3116 C.ar      1 <0>         0.1744 
      6 C6         45.1608   14.3716    1.9907 C.2       1 <0>        -0.0945 
      7 C7         44.5870   15.3479    1.2113 C.2       1 <0>        -0.0650 
      8 C8         44.7233   13.1779   -0.0328 C.ar      1 <0>         0.3359 
      9 C9         46.6448   15.7816    4.9670 C.2       1 <0>         0.6000 
     10 C10        44.2134   16.7420    1.5416 C.2       1 <0>         0.7150 
     11 N1         44.6449   12.1530   -0.9339 N.ar      1 <0>        -0.5090 
     12 O1         47.0180   16.9483    5.2372 O.co2     1 <0>        -0.8000 
     13 O2         44.6244   17.2764    2.5973 O.co2     1 <0>        -0.8000 
     14 O3         46.2448   14.9482    5.8122 O.co2     1 <0>        -0.8000 
     15 O4         43.4448   17.3482    0.7678 O.co2     1 <0>        -0.8000 
     16 O5         45.5197   14.5481    3.2743 O.3       1 <0>        -0.3000 
     17 S1         44.2448   14.8183   -0.4216 S.3       1 <0>        -0.0656 
     18 H1         45.8624    9.7377    1.1309 H         1 <0>         0.1797 
     19 H2         45.9932   11.6675    2.7259 H         1 <0>         0.1629 
     20 H3         44.9973   10.1339   -1.1774 H         1 <0>         0.0799 
     21 H4         46.8260   16.1426    2.8376 H         1 <0>         0.0300 
     22 H5         47.5660   14.6551    3.3836 H         1 <0>         0.0300 
@<TRIPOS>BOND
     1    1    2 ar   
     2    1    3 ar   
     3    1   18 1    
     4    2    5 ar   
     5    2   19 1    
     6    3   11 ar   
     7    3   20 1    
     8    4    9 1    
     9    4   16 1    
    10    4   21 1    
    11    4   22 1    
    12    5    6 1    
    13    5    8 ar   
    14    6    7 2    
    15    6   16 1    
    16    7   10 1    
    17    7   17 1    
    18    8   11 ar   
    19    8   17 1    
    20    9   12 1    
    21    9   14 2    
    22   10   13 1    
    23   10   15 2    
@<TRIPOS>SUBSTRUCTURE
     1 <0>         1 GROUP             0       ****    0 ROOT    
@<TRIPOS>MOLECULE
ptn1-ligand
22   23    1
SMALL
USER_CHARGES


@<TRIPOS>ATOM
      1 C1         46.5586   11.2954    2.0840 C.ar      1 <0>        -0.3593 
      2 C2         46.4880   12.5275    2.7678 C.ar      1 <0>        -0.1127 
      3 C3         45.8183   11.1226    0.9021 C.ar      1 <0>         0.2583 
      4 C4         46.5506   16.7596    3.8082 C.3       1 <0>         0.1400 
      5 C5         45.7167   13.5865    2.2431 C.ar      1 <0>         0.1744 
      6 C6         45.4740   14.9490    2.6892 C.2       1 <0>        -0.0945 
      7 C7         44.6715   15.6170    1.7779 C.2       1 <0>        -0.0650 
      8 C8         45.0448   13.2717    1.0205 C.ar      1 <0>         0.3359 
      9 C9         47.9918   16.7614    4.2369 C.2       1 <0>         0.6000 
     10 C10        44.1106   16.9821    1.7477 C.2       1 <0>         0.7150 
     11 N1         45.0530   12.0825    0.3491 N.ar      1 <0>        -0.5090 
     12 O1         48.4475   17.7935    4.7678 O.co2     1 <0>        -0.8000 
     13 O2         43.4448   17.3482    0.7678 O.co2     1 <0>        -0.8000 
     14 O3         48.6448   15.7482    3.9678 O.co2     1 <0>        -0.8000 
     15 O4         44.2448   17.7482    2.7225 O.co2     1 <0>        -0.8000 
     16 O5         45.9678   15.4517    3.8534 O.3       1 <0>        -0.3000 
     17 S1         44.2448   14.6681    0.3764 S.3       1 <0>        -0.0656 
     18 H1         47.1810   10.4921    2.4488 H         1 <0>         0.1797 
     19 H2         47.0448   12.6791    3.6787 H         1 <0>         0.1629 
     20 H3         45.8568   10.1828    0.3709 H         1 <0>         0.0799 
     21 H4         45.9923   17.4318    4.4590 H         1 <0>         0.0300 
     22 H5         46.5963   17.1819    2.8047 H         1 <0>         0.0300 
@<TRIPOS>BOND
     1    1    2 ar   
     2    1    3 ar   
     3    1   18 1    
     4    2    5 ar   
     5    2   19 1    
     6    3   11 ar   
     7    3   20 1    
     8    4    9 1    
     9    4   16 1    
    10    4   21 1    
    11    4   22 1    
    12    5    6 1    
    13    5    8 ar   
    14    6    7 2    
    15    6   16 1    
    16    7   10 1    
    17    7   17 1    
    18    8   11 ar   
    19    8   17 1    
    20    9   12 1    
    21    9   14 2    
    22   10   13 1    
    23   10   15 2    
@<TRIPOS>SUBSTRUCTURE
     1 <0>         1 GROUP             0       ****    0 ROOT    
@<TRIPOS>MOLECULE
ptn1-ligand
22   23    1
SMALL
USER_CHARGES


@<TRIPOS>ATOM
      1 C1         45.1126   10.6208   -0.3010 C.ar      1 <0>        -0.3593 
      2 C2         44.6448   11.9226   -0.0376 C.ar      1 <0>        -0.1127 
      3 C3         46.0771   10.0635    0.5580 C.ar      1 <0>         0.2583 
      4 C4         44.0241   15.0671   -0.2945 C.3       1 <0>         0.1400 
      5 C5         45.1284   12.6552    1.0735 C.ar      1 <0>         0.1744 
      6 C6         44.8429   13.9834    1.6104 C.2       1 <0>        -0.0945 
      7 C7         45.5727   14.2499    2.7556 C.2       1 <0>        -0.0650 
      8 C8         46.1027   11.9609    1.8451 C.ar      1 <0>         0.3359 
      9 C9         43.8919   16.5482   -0.5877 C.2       1 <0>         0.6000 
     10 C10        45.5853   15.3875    3.7291 C.2       1 <0>         0.7150 
     11 N1         46.5876   10.7010    1.6307 N.ar      1 <0>        -0.5090 
     12 O1         43.8448   17.3455    0.3791 O.co2     1 <0>        -0.8000 
     13 O2         44.6448   16.2143    3.7442 O.co2     1 <0>        -0.8000 
     14 O3         43.8448   16.8963   -1.7876 O.co2     1 <0>        -0.8000 
     15 O4         46.4985   15.4587    4.5865 O.co2     1 <0>        -0.8000 
     16 O5         43.9409   14.8455    1.1065 O.3       1 <0>        -0.3000 
     17 S1         46.6448   12.9482    3.1678 S.3       1 <0>        -0.0656 
     18 H1         44.7415   10.0601   -1.1464 H         1 <0>         0.1797 
     19 H2         43.8965   12.3545   -0.6836 H         1 <0>         0.1629 
     20 H3         46.4529    9.0668    0.3775 H         1 <0>         0.0799 
     21 H4         43.2165   14.5482   -0.8073 H         1 <0>         0.0300 
     22 H5         44.9673   14.7241   -0.7241 H         1 <0>         0.0300 
@<TRIPOS>BOND
     1    1    2 ar   
     2    1    3 ar   
     3    1   18 1    
     4    2    5 ar   
     5    2   19 1    
     6    3   11 ar   
     7    3   20 1    
     8    4    9 1    
     9    4   16 1    
    10    4   21 1    
    11    4   22 1    
    12    5    6 1    
    13    5    8 ar   
    14    6    7 2    
    15    6   16 1    
    16    7   10 1    
    17    7   17 1    
    18    8   11 ar   
    19    8   17 1    
    20    9   12 1    
    21    9   14 2    
    22   10   13 1    
    23   10   15 2    
@<TRIPOS>SUBSTRUCTURE
     1 <0>         1 GROUP             0       ****    0 ROOT    
@<TRIPOS>MOLECULE
ptn1-ligand
22   23    1
SMALL
USER_CHARGES


@<TRIPOS>ATOM
      1 C1         46.6449   15.0064    4.4735 C.ar      1 <0>        -0.3593 
      2 C2         46.2661   14.3219    3.3042 C.ar      1 <0>        -0.1127 
      3 C3         46.1358   16.2979    4.7016 C.ar      1 <0>         0.2583 
      4 C4         44.2684   12.3004    0.6405 C.3       1 <0>         0.1400 
      5 C5         45.4101   14.9421    2.3692 C.ar      1 <0>         0.1744 
      6 C6         44.8963   14.5148    1.0854 C.2       1 <0>        -0.0945 
      7 C7         44.2448   15.5408    0.4354 C.2       1 <0>        -0.0650 
      8 C8         44.9903   16.2610    2.7168 C.ar      1 <0>         0.3359 
      9 C9         44.9680   11.0501    1.1622 C.2       1 <0>         0.6000 
     10 C10        43.8136   15.6541   -0.9793 C.2       1 <0>         0.7150 
     11 N1         45.2995   16.9476    3.8630 N.ar      1 <0>        -0.5090 
     12 O1         44.6671    9.9628    0.6208 O.co2     1 <0>        -0.8000 
     13 O2         43.8464   14.6431   -1.7127 O.co2     1 <0>        -0.8000 
     14 O3         45.7878   11.1966    2.0978 O.co2     1 <0>        -0.8000 
     15 O4         43.4455   16.7677   -1.4127 O.co2     1 <0>        -0.8000 
     16 O5         45.2140   13.3422    0.5033 O.3       1 <0>        -0.3000 
     17 S1         44.0172   16.9536    1.4344 S.3       1 <0>        -0.0656 
     18 H1         47.3244   14.5474    5.1705 H         1 <0>         0.1797 
     19 H2         46.6456   13.3303    3.0991 H         1 <0>         0.1629 
     20 H3         46.4173   16.8311    5.5977 H         1 <0>         0.0799 
     21 H4         43.8453   12.0971   -0.3426 H         1 <0>         0.0300 
     22 H5         43.4490   12.5593    1.3098 H         1 <0>         0.0300 
@<TRIPOS>BOND
     1    1    2 ar   
     2    1    3 ar   
     3    1   18 1    
     4    2    5 ar   
     5    2   19 1    
     6    3   11 ar   
     7    3   20 1    
     8    4    9 1    
     9    4   16 1    
    10    4   21 1    
    11    4   22 1    
    12    5    6 1    
    13    5    8 ar   
    14    6    7 2    
    15    6   16 1    
    16    7   10 1    
    17    7   17 1    
    18    8   11 ar   
    19    8   17 1    
    20    9   12 1    
    21    9   14 2    
    22   10   13 1    
    23   10   15 2    
@<TRIPOS>SUBSTRUCTURE
     1 <0>         1 GROUP             0       ****    0 ROOT    
@<TRIPOS>MOLECULE
ptn1-ligand
22   23    1
SMALL
USER_CHARGES


@<TRIPOS>ATOM
      1 C1         46.6447   14.9354    4.4631 C.ar      1 <0>        -0.3593 
      2 C2         46.2455   14.2519    3.2989 C.ar      1 <0>        -0.1127 
      3 C3         46.1698   16.2417    4.6814 C.ar      1 <0>         0.2583 
      4 C4         44.2791   12.2497    0.5825 C.3       1 <0>         0.1400 
      5 C5         45.4035   14.8897    2.3650 C.ar      1 <0>         0.1744 
      6 C6         44.8948   14.4636    1.0816 C.2       1 <0>        -0.0945 
      7 C7         44.2455   15.4934    0.4305 C.2       1 <0>        -0.0650 
      8 C8         45.0133   16.2196    2.7038 C.ar      1 <0>         0.3359 
      9 C9         44.9623   10.9491    0.9988 C.2       1 <0>         0.6000 
     10 C10        43.8171   15.6074   -0.9839 C.2       1 <0>         0.7150 
     11 N1         45.3444   16.9056    3.8431 N.ar      1 <0>        -0.5090 
     12 O1         45.7762   11.0066    1.9490 O.co2     1 <0>        -0.8000 
     13 O2         43.4542   16.7229   -1.4174 O.co2     1 <0>        -0.8000 
     14 O3         44.6443    9.9120    0.3730 O.co2     1 <0>        -0.8000 
     15 O4         43.8444   14.5960   -1.7168 O.co2     1 <0>        -0.8000 
     16 O5         45.2348   13.2891    0.5104 O.3       1 <0>        -0.3000 
     17 S1         44.0578   16.9268    1.4158 S.3       1 <0>        -0.0656 
     18 H1         47.3095   14.4707    5.1706 H         1 <0>         0.1797 
     19 H2         46.5988   13.2493    3.0959 H         1 <0>         0.1629 
     20 H3         46.4682   16.7754    5.5701 H         1 <0>         0.0799 
     21 H4         43.8463   12.1261   -0.4095 H         1 <0>         0.0300 
     22 H5         43.4689   12.4711    1.2802 H         1 <0>         0.0300 
@<TRIPOS>BOND
     1    1    2 ar   
     2    1    3 ar   
     3    1   18 1    
     4    2    5 ar   
     5    2   19 1    
     6    3   11 ar   
     7    3   20 1    
     8    4    9 1    
     9    4   16 1    
    10    4   21 1    
    11    4   22 1    
    12    5    6 1    
    13    5    8 ar   
    14    6    7 2    
    15    6   16 1    
    16    7   10 1    
    17    7   17 1    
    18    8   11 ar   
    19    8   17 1    
    20    9   12 1    
    21    9   14 2    
    22   10   13 1    
    23   10   15 2    
@<TRIPOS>SUBSTRUCTURE
     1 <0>         1 GROUP             0       ****    0 ROOT    
