@<TRIPOS>MOLECULE
pur2-ligand
62   63    1
SMALL
USER_CHARGES


@<TRIPOS>ATOM
      1 C1         73.1986   21.5634   31.4331 C.ar      1 <0>        -0.1150 
      2 C2         72.3762   23.8361   31.7057 C.ar      1 <0>        -0.1150 
      3 C3         73.6617   21.5821   32.7614 C.ar      1 <0>        -0.1150 
      4 C4         72.8339   23.8479   33.0379 C.ar      1 <0>        -0.1150 
      5 C5         74.5537   23.1415   28.4954 C.3       1 <0>        -0.1200 
      6 C6         75.1229   23.3976   27.0953 C.3       1 <0>        -0.1200 
      7 C7         73.3132   22.2432   28.4672 C.3       1 <0>        -0.1200 
      8 C8         75.8162   20.8384   37.0946 C.3       1 <0>        -0.1200 
      9 C9         76.0274   19.5718   36.2427 C.3       1 <0>        -0.2200 
     10 C10        72.5819   22.7064   30.8826 C.ar      1 <0>        -0.1150 
     11 C11        73.5268   22.7363   33.5604 C.ar      1 <0>        -0.1150 
     12 C12        76.3082   24.3393   27.1807 C.ar      1 <0>        -0.0567 
     13 C13        77.5110   23.9260   27.6471 C.ar      1 <0>         0.1405 
     14 C14        76.1402   25.7552   26.8130 C.ar      1 <0>         0.5567 
     15 C15        78.4097   26.0571   27.6034 C.ar      1 <0>         0.5465 
     16 C16        72.2040   22.7771   29.4021 C.3       1 <0>         0.0550 
     17 C17        76.0826   22.1657   36.3418 C.3       1 <0>         0.0400 
     18 C18        76.1948   18.3017   37.0633 C.2       1 <0>         0.7000 
     19 C19        74.0997   22.7906   34.9472 C.2       1 <0>         0.6150 
     20 C20        77.5726   22.4993   36.1386 C.2       1 <0>         0.7000 
     21 C21        70.7694   22.3185   29.0344 C.3       1 <0>         0.5300 
     22 C22        70.4644   20.8323   29.2697 C.3       1 <0>         0.6171 
     23 N1         77.7934   22.6367   28.0461 N.pl3     1 <0>        -0.7254 
     24 N2         79.3459   27.0367   27.8429 N.pl3     1 <0>        -0.7850 
     25 N3         77.2120   26.5405   27.0729 N.pl3     1 <0>        -0.4225 
     26 N4         78.5759   24.7974   27.8428 N.2       1 <0>        -0.4815 
     27 N5         75.3149   22.2363   35.0980 N.am      1 <0>        -0.5000 
     28 O1         69.8701   23.0364   29.8425 O.3       1 <0>        -0.6936 
     29 O2         70.5522   22.6363   27.6731 O.3       1 <0>        -0.6936 
     30 O3         75.2039   17.5537   37.2029 O.co2     1 <0>        -0.8000 
     31 O4         78.1459   22.2362   35.0525 O.co2     1 <0>        -0.8000 
     32 O5         75.1356   26.2275   26.2773 O.2       1 <0>        -0.5000 
     33 O6         77.3459   18.0797   37.4963 O.co2     1 <0>        -0.8000 
     34 O7         73.4983   23.3747   35.8486 O.2       1 <0>        -0.5000 
     35 O8         78.1460   23.0362   37.1101 O.co2     1 <0>        -0.8000 
     36 F1         70.4947   20.6363   30.5831 F         1 <0>        -0.2057 
     37 F2         69.2492   20.5151   28.8244 F         1 <0>        -0.2057 
     38 F3         71.3574   20.0408   28.6737 F         1 <0>        -0.2057 
     39 H1         73.3481   20.6737   30.8387 H         1 <0>         0.1150 
     40 H2         71.8976   24.7184   31.3046 H         1 <0>         0.1150 
     41 H3         74.1427   20.7038   33.1583 H         1 <0>         0.1150 
     42 H4         72.6979   24.7348   33.6400 H         1 <0>         0.1150 
     43 H5         74.3220   24.1112   28.9393 H         1 <0>         0.0600 
     44 H6         75.3003   22.6959   29.1537 H         1 <0>         0.0600 
     45 H7         75.4291   22.4554   26.6432 H         1 <0>         0.0600 
     46 H8         74.3542   23.8127   26.4422 H         1 <0>         0.0600 
     47 H9         73.5898   21.2150   28.6968 H         1 <0>         0.0600 
     48 H10        72.9506   22.2023   27.4427 H         1 <0>         0.0600 
     49 H11        74.7924   20.8387   37.4712 H         1 <0>         0.0600 
     50 H12        76.4545   20.8012   37.9788 H         1 <0>         0.0600 
     51 H13        76.9417   19.6780   35.6569 H         1 <0>         0.0600 
     52 H14        75.1876   19.4388   35.5607 H         1 <0>         0.0600 
     53 H15        72.1827   23.8373   29.2027 H         1 <0>         0.0600 
     54 H16        75.7224   22.9628   36.9957 H         1 <0>         0.0600 
     55 H17        77.0558   21.9493   28.1094 H         1 <0>         0.3537 
     56 H18        78.6331   22.3966   28.5545 H         1 <0>         0.3537 
     57 H19        80.2566   26.8393   28.2502 H         1 <0>         0.3600 
     58 H20        79.1683   28.0286   27.7591 H         1 <0>         0.3600 
     59 H21        77.1606   27.5099   26.7869 H         1 <0>         0.3000 
     60 H22        75.7314   21.7483   34.3119 H         1 <0>         0.3000 
     61 H23        70.1395   23.9553   29.8343 H         1 <0>         0.4286 
     62 H24        70.9459   23.5119   27.5346 H         1 <0>         0.4286 
@<TRIPOS>BOND
     1    1    3 ar   
     2    1   10 ar   
     3    1   39 1    
     4    2    4 ar   
     5    2   10 ar   
     6    2   40 1    
     7    3   11 ar   
     8    3   41 1    
     9    4   11 ar   
    10    4   42 1    
    11    5    6 1    
    12    5    7 1    
    13    5   43 1    
    14    5   44 1    
    15    6   12 1    
    16    6   45 1    
    17    6   46 1    
    18    7   16 1    
    19    7   47 1    
    20    7   48 1    
    21    8    9 1    
    22    8   17 1    
    23    8   49 1    
    24    8   50 1    
    25    9   18 1    
    26    9   51 1    
    27    9   52 1    
    28   10   16 1    
    29   11   19 1    
    30   12   13 ar   
    31   12   14 ar   
    32   13   23 1    
    33   13   26 ar   
    34   14   25 ar   
    35   14   32 2    
    36   15   24 1    
    37   15   25 ar   
    38   15   26 ar   
    39   16   21 1    
    40   16   53 1    
    41   17   20 1    
    42   17   27 1    
    43   17   54 1    
    44   18   30 1    
    45   18   33 2    
    46   19   27 am   BACKBONE|DICT|INTERRES
    47   19   34 2    
    48   20   31 1    
    49   20   35 2    
    50   21   22 1    
    51   21   28 1    
    52   21   29 1    
    53   22   36 1    
    54   22   37 1    
    55   22   38 1    
    56   23   55 1    
    57   23   56 1    
    58   24   57 1    
    59   24   58 1    
    60   25   59 1    
    61   27   60 1    
    62   28   61 1    
    63   29   62 1    
@<TRIPOS>SUBSTRUCTURE
     1 <0>         1 GROUP             0       ****    0 ROOT    
@<TRIPOS>MOLECULE
pur2-ligand
62   63    1
SMALL
USER_CHARGES


@<TRIPOS>ATOM
      1 C1         73.3138   21.4368   31.2719 C.ar      1 <0>        -0.1150 
      2 C2         72.4895   23.7156   31.3770 C.ar      1 <0>        -0.1150 
      3 C3         73.7276   21.5228   32.6151 C.ar      1 <0>        -0.1150 
      4 C4         72.9333   23.8098   32.7153 C.ar      1 <0>        -0.1150 
      5 C5         74.3455   23.5231   28.1791 C.3       1 <0>        -0.1200 
      6 C6         75.1104   23.5910   26.8610 C.3       1 <0>        -0.1200 
      7 C7         73.4883   22.2714   28.2435 C.3       1 <0>        -0.1200 
      8 C8         75.6571   21.0886   37.1702 C.3       1 <0>        -0.1200 
      9 C9         75.9157   19.7325   36.4834 C.3       1 <0>        -0.2200 
     10 C10        72.6927   22.5291   30.6364 C.ar      1 <0>        -0.1150 
     11 C11        73.5913   22.7248   33.3395 C.ar      1 <0>        -0.1150 
     12 C12        76.3113   24.4709   27.0458 C.ar      1 <0>        -0.0567 
     13 C13        77.4847   24.0072   27.5436 C.ar      1 <0>         0.1405 
     14 C14        76.1665   25.8950   26.7495 C.ar      1 <0>         0.5567 
     15 C15        78.4131   26.1190   27.6304 C.ar      1 <0>         0.5465 
     16 C16        72.2723   22.4316   29.1635 C.3       1 <0>         0.0550 
     17 C17        76.0165   22.3123   36.2941 C.3       1 <0>         0.0400 
     18 C18        76.1871   18.5930   37.4564 C.2       1 <0>         0.7000 
     19 C19        74.1082   22.8569   34.7508 C.2       1 <0>         0.6150 
     20 C20        77.5351   22.5421   36.1195 C.2       1 <0>         0.7000 
     21 C21        71.1670   21.3938   28.7956 C.3       1 <0>         0.5300 
     22 C22        70.0463   21.3051   29.8411 C.3       1 <0>         0.6171 
     23 N1         77.7381   22.6927   27.8766 N.pl3     1 <0>        -0.7254 
     24 N2         79.3461   27.0820   27.9277 N.pl3     1 <0>        -0.7850 
     25 N3         77.2492   26.6363   27.0633 N.pl3     1 <0>        -0.4225 
     26 N4         78.5491   24.8508   27.8421 N.2       1 <0>        -0.4815 
     27 N5         75.2886   22.2646   35.0208 N.am      1 <0>        -0.5000 
     28 O1         70.5455   21.7956   27.5851 O.3       1 <0>        -0.6936 
     29 O2         71.7535   20.1156   28.6422 O.3       1 <0>        -0.6936 
     30 O3         77.3458   18.1208   37.4413 O.co2     1 <0>        -0.8000 
     31 O4         78.1015   22.2362   35.0427 O.co2     1 <0>        -0.8000 
     32 O5         75.1796   26.4080   26.2245 O.2       1 <0>        -0.5000 
     33 O6         75.2516   18.2089   38.1886 O.co2     1 <0>        -0.8000 
     34 O7         73.4950   23.5407   35.5704 O.2       1 <0>        -0.5000 
     35 O8         78.1460   23.0361   37.0927 O.co2     1 <0>        -0.8000 
     36 F1         69.0912   20.4593   29.4482 F         1 <0>        -0.2057 
     37 F2         70.5459   20.8894   31.0028 F         1 <0>        -0.2057 
     38 F3         69.5103   22.5155   30.0015 F         1 <0>        -0.2057 
     39 H1         73.4557   20.5169   30.7254 H         1 <0>         0.1150 
     40 H2         72.0111   24.5691   30.9150 H         1 <0>         0.1150 
     41 H3         74.1459   20.6484   33.0842 H         1 <0>         0.1150 
     42 H4         72.7906   24.7350   33.2540 H         1 <0>         0.1150 
     43 H5         73.7459   24.4279   28.2727 H         1 <0>         0.0600 
     44 H6         75.0227   23.5182   29.0357 H         1 <0>         0.0600 
     45 H7         75.4511   22.6131   26.5518 H         1 <0>         0.0600 
     46 H8         74.4695   23.9452   26.0532 H         1 <0>         0.0600 
     47 H9         74.1064   21.4226   28.5410 H         1 <0>         0.0600 
     48 H10        73.1478   22.0355   27.2436 H         1 <0>         0.0600 
     49 H11        74.6074   21.1425   37.4612 H         1 <0>         0.0600 
     50 H12        76.2222   21.1488   38.1015 H         1 <0>         0.0600 
     51 H13        76.7918   19.8132   35.8426 H         1 <0>         0.0600 
     52 H14        75.0767   19.4657   35.8423 H         1 <0>         0.0600 
     53 H15        71.8219   23.4031   28.9659 H         1 <0>         0.0600 
     54 H16        75.6756   23.1957   36.8366 H         1 <0>         0.0600 
     55 H17        76.9796   22.0259   27.9027 H         1 <0>         0.3537 
     56 H18        78.5410   22.4337   28.4327 H         1 <0>         0.3537 
     57 H19        80.2500   26.8633   28.3411 H         1 <0>         0.3600 
     58 H20        79.1854   28.0783   27.8564 H         1 <0>         0.3600 
     59 H21        77.2276   27.6138   26.8022 H         1 <0>         0.3000 
     60 H22        75.7280   21.7032   34.2982 H         1 <0>         0.3000 
     61 H23        70.1031   21.0317   27.2387 H         1 <0>         0.4286 
     62 H24        72.5713   20.2219   28.1787 H         1 <0>         0.4286 
@<TRIPOS>BOND
     1    1    3 ar   
     2    1   10 ar   
     3    1   39 1    
     4    2    4 ar   
     5    2   10 ar   
     6    2   40 1    
     7    3   11 ar   
     8    3   41 1    
     9    4   11 ar   
    10    4   42 1    
    11    5    6 1    
    12    5    7 1    
    13    5   43 1    
    14    5   44 1    
    15    6   12 1    
    16    6   45 1    
    17    6   46 1    
    18    7   16 1    
    19    7   47 1    
    20    7   48 1    
    21    8    9 1    
    22    8   17 1    
    23    8   49 1    
    24    8   50 1    
    25    9   18 1    
    26    9   51 1    
    27    9   52 1    
    28   10   16 1    
    29   11   19 1    
    30   12   13 ar   
    31   12   14 ar   
    32   13   23 1    
    33   13   26 ar   
    34   14   25 ar   
    35   14   32 2    
    36   15   24 1    
    37   15   25 ar   
    38   15   26 ar   
    39   16   21 1    
    40   16   53 1    
    41   17   20 1    
    42   17   27 1    
    43   17   54 1    
    44   18   30 1    
    45   18   33 2    
    46   19   27 am   BACKBONE|DICT|INTERRES
    47   19   34 2    
    48   20   31 1    
    49   20   35 2    
    50   21   22 1    
    51   21   28 1    
    52   21   29 1    
    53   22   36 1    
    54   22   37 1    
    55   22   38 1    
    56   23   55 1    
    57   23   56 1    
    58   24   57 1    
    59   24   58 1    
    60   25   59 1    
    61   27   60 1    
    62   28   61 1    
    63   29   62 1    
@<TRIPOS>SUBSTRUCTURE
     1 <0>         1 GROUP             0       ****    0 ROOT    
@<TRIPOS>MOLECULE
pur2-ligand
62   63    1
SMALL
USER_CHARGES


@<TRIPOS>ATOM
      1 C1         73.2347   21.7220   31.5777 C.ar      1 <0>        -0.1150 
      2 C2         72.4605   23.9926   31.9500 C.ar      1 <0>        -0.1150 
      3 C3         73.7113   21.6811   32.8989 C.ar      1 <0>        -0.1150 
      4 C4         72.9459   23.9504   33.2748 C.ar      1 <0>        -0.1150 
      5 C5         74.5481   23.2473   28.6224 C.3       1 <0>        -0.1200 
      6 C6         75.0967   23.4296   27.2017 C.3       1 <0>        -0.1200 
      7 C7         73.2631   22.4286   28.6352 C.3       1 <0>        -0.1200 
      8 C8         76.1992   20.3234   36.5226 C.3       1 <0>        -0.1200 
      9 C9         76.4651   19.7827   37.9417 C.3       1 <0>        -0.2200 
     10 C10        72.6300   22.8931   31.0772 C.ar      1 <0>        -0.1150 
     11 C11        73.6317   22.8086   33.7413 C.ar      1 <0>        -0.1150 
     12 C12        76.2938   24.3513   27.2440 C.ar      1 <0>        -0.0567 
     13 C13        77.4855   23.9344   27.7353 C.ar      1 <0>         0.1405 
     14 C14        76.1404   25.7591   26.8364 C.ar      1 <0>         0.5567 
     15 C15        78.4037   26.0574   27.6348 C.ar      1 <0>         0.5465 
     16 C16        72.2078   23.0116   29.6076 C.3       1 <0>         0.0550 
     17 C17        76.2593   21.8653   36.3451 C.3       1 <0>         0.0400 
     18 C18        76.6741   18.2609   37.9420 C.2       1 <0>         0.7000 
     19 C19        74.2561   22.7810   35.1094 C.2       1 <0>         0.6150 
     20 C20        77.6966   22.4225   36.2465 C.2       1 <0>         0.7000 
     21 C21        70.7606   22.5446   29.2785 C.3       1 <0>         0.5300 
     22 C22        70.4079   21.0929   29.6746 C.3       1 <0>         0.6171 
     23 N1         77.7459   22.6503   28.1778 N.pl3     1 <0>        -0.7254 
     24 N2         79.3459   27.0363   27.8427 N.pl3     1 <0>        -0.7850 
     25 N3         77.2172   26.5389   27.0824 N.pl3     1 <0>        -0.4225 
     26 N4         78.5542   24.8037   27.9166 N.2       1 <0>        -0.4815 
     27 N5         75.4853   22.2363   35.1568 N.am      1 <0>        -0.5000 
     28 O1         69.9039   23.4363   29.9519 O.3       1 <0>        -0.6936 
     29 O2         70.5466   22.6363   27.8816 O.3       1 <0>        -0.6936 
     30 O3         77.7439   17.8363   37.4427 O.co2     1 <0>        -0.8000 
     31 O4         78.3584   22.2363   35.1955 O.co2     1 <0>        -0.8000 
     32 O5         75.1445   26.2321   26.2846 O.2       1 <0>        -0.5000 
     33 O6         75.7828   17.5485   38.4492 O.co2     1 <0>        -0.8000 
     34 O7         73.6733   23.2558   36.0830 O.2       1 <0>        -0.5000 
     35 O8         78.1459   23.0363   37.2393 O.co2     1 <0>        -0.8000 
     36 F1         69.1449   20.8109   29.3486 F         1 <0>        -0.2057 
     37 F2         71.2110   20.2364   29.0427 F         1 <0>        -0.2057 
     38 F3         70.5478   20.9153   30.9820 F         1 <0>        -0.2057 
     39 H1         73.3462   20.8456   30.9571 H         1 <0>         0.1150 
     40 H2         71.9867   24.8951   31.5912 H         1 <0>         0.1150 
     41 H3         74.1459   20.7660   33.2616 H         1 <0>         0.1150 
     42 H4         72.8406   24.8171   33.9116 H         1 <0>         0.1150 
     43 H5         74.3704   24.2363   29.0431 H         1 <0>         0.0600 
     44 H6         75.2792   22.7786   29.2812 H         1 <0>         0.0600 
     45 H7         75.3795   22.4663   26.7775 H         1 <0>         0.0600 
     46 H8         74.3294   23.8372   26.5419 H         1 <0>         0.0600 
     47 H9         73.4832   21.3806   28.8349 H         1 <0>         0.0600 
     48 H10        72.8846   22.4292   27.6173 H         1 <0>         0.0600 
     49 H11        76.9164   19.8669   35.8427 H         1 <0>         0.0600 
     50 H12        75.2202   19.9578   36.2086 H         1 <0>         0.0600 
     51 H13        75.6313   20.0368   38.5971 H         1 <0>         0.0600 
     52 H14        77.3459   20.2563   38.3723 H         1 <0>         0.0600 
     53 H15        72.2088   24.0876   29.4427 H         1 <0>         0.0600 
     54 H16        75.7909   22.3253   37.2172 H         1 <0>         0.0600 
     55 H17        76.9993   21.9715   28.2251 H         1 <0>         0.3537 
     56 H18        78.5492   22.4183   28.7460 H         1 <0>         0.3537 
     57 H19        80.2551   26.8447   28.2563 H         1 <0>         0.3600 
     58 H20        79.1765   28.0266   27.7266 H         1 <0>         0.3600 
     59 H21        77.1779   27.5014   26.7723 H         1 <0>         0.3000 
     60 H22        75.8713   21.9005   34.2842 H         1 <0>         0.3000 
     61 H23        70.1459   24.3505   29.7144 H         1 <0>         0.4286 
     62 H24        70.9459   23.4821   27.6286 H         1 <0>         0.4286 
@<TRIPOS>BOND
     1    1    3 ar   
     2    1   10 ar   
     3    1   39 1    
     4    2    4 ar   
     5    2   10 ar   
     6    2   40 1    
     7    3   11 ar   
     8    3   41 1    
     9    4   11 ar   
    10    4   42 1    
    11    5    6 1    
    12    5    7 1    
    13    5   43 1    
    14    5   44 1    
    15    6   12 1    
    16    6   45 1    
    17    6   46 1    
    18    7   16 1    
    19    7   47 1    
    20    7   48 1    
    21    8    9 1    
    22    8   17 1    
    23    8   49 1    
    24    8   50 1    
    25    9   18 1    
    26    9   51 1    
    27    9   52 1    
    28   10   16 1    
    29   11   19 1    
    30   12   13 ar   
    31   12   14 ar   
    32   13   23 1    
    33   13   26 ar   
    34   14   25 ar   
    35   14   32 2    
    36   15   24 1    
    37   15   25 ar   
    38   15   26 ar   
    39   16   21 1    
    40   16   53 1    
    41   17   20 1    
    42   17   27 1    
    43   17   54 1    
    44   18   30 1    
    45   18   33 2    
    46   19   27 am   BACKBONE|DICT|INTERRES
    47   19   34 2    
    48   20   31 1    
    49   20   35 2    
    50   21   22 1    
    51   21   28 1    
    52   21   29 1    
    53   22   36 1    
    54   22   37 1    
    55   22   38 1    
    56   23   55 1    
    57   23   56 1    
    58   24   57 1    
    59   24   58 1    
    60   25   59 1    
    61   27   60 1    
    62   28   61 1    
    63   29   62 1    
@<TRIPOS>SUBSTRUCTURE
     1 <0>         1 GROUP             0       ****    0 ROOT    
@<TRIPOS>MOLECULE
pur2-ligand
62   63    1
SMALL
USER_CHARGES


@<TRIPOS>ATOM
      1 C1         73.3932   21.4363   31.2659 C.ar      1 <0>        -0.1150 
      2 C2         72.5945   23.7217   31.2674 C.ar      1 <0>        -0.1150 
      3 C3         73.7421   21.5514   32.6234 C.ar      1 <0>        -0.1150 
      4 C4         72.9458   23.8363   32.6334 C.ar      1 <0>        -0.1150 
      5 C5         75.0708   22.4188   28.3417 C.3       1 <0>        -0.1200 
      6 C6         75.2414   23.4065   27.1747 C.3       1 <0>        -0.1200 
      7 C7         73.7162   21.7050   28.2752 C.3       1 <0>        -0.1200 
      8 C8         75.6076   21.1566   37.1519 C.3       1 <0>        -0.1200 
      9 C9         75.8893   19.7943   36.4838 C.3       1 <0>        -0.2200 
     10 C10        72.8533   22.5256   30.5582 C.ar      1 <0>        -0.1150 
     11 C11        73.5892   22.7719   33.3076 C.ar      1 <0>        -0.1150 
     12 C12        76.4136   24.3757   27.3182 C.ar      1 <0>        -0.0567 
     13 C13        77.6801   24.0059   27.6461 C.ar      1 <0>         0.1405 
     14 C14        76.1632   25.7989   27.0426 C.ar      1 <0>         0.5567 
     15 C15        78.4554   26.1877   27.7034 C.ar      1 <0>         0.5465 
     16 C16        72.5689   22.4009   29.0522 C.3       1 <0>         0.0550 
     17 C17        75.9980   22.3735   36.2791 C.3       1 <0>         0.0400 
     18 C18        76.1826   18.6695   37.4677 C.2       1 <0>         0.7000 
     19 C19        74.0976   22.9385   34.7183 C.2       1 <0>         0.6150 
     20 C20        77.5255   22.5624   36.1133 C.2       1 <0>         0.7000 
     21 C21        71.1620   21.8202   28.6669 C.3       1 <0>         0.5300 
     22 C22        70.1178   21.8002   29.8044 C.3       1 <0>         0.6171 
     23 N1         78.1140   22.7145   27.8427 N.pl3     1 <0>        -0.7254 
     24 N2         79.3459   27.2059   27.9505 N.pl3     1 <0>        -0.7850 
     25 N3         77.2051   26.6288   27.2797 N.pl3     1 <0>        -0.4225 
     26 N4         78.7055   24.9283   27.8427 N.2       1 <0>        -0.4815 
     27 N5         75.2728   22.3386   35.0026 N.am      1 <0>        -0.5000 
     28 O1         70.6278   22.6363   27.6384 O.3       1 <0>        -0.6936 
     29 O2         71.2758   20.4734   28.2381 O.3       1 <0>        -0.6936 
     30 O3         75.2584   18.2846   38.2143 O.co2     1 <0>        -0.8000 
     31 O4         78.1459   23.0363   37.0906 O.co2     1 <0>        -0.8000 
     32 O5         75.1161   26.2363   26.5664 O.2       1 <0>        -0.5000 
     33 O6         77.3459   18.2068   37.4428 O.co2     1 <0>        -0.8000 
     34 O7         73.4879   23.6470   35.5186 O.2       1 <0>        -0.5000 
     35 O8         78.0920   22.2363   35.0427 O.co2     1 <0>        -0.8000 
     36 F1         69.9138   23.0363   30.2427 F         1 <0>        -0.2057 
     37 F2         68.9482   21.3173   29.3806 F         1 <0>        -0.2057 
     38 F3         70.5459   21.0363   30.8058 F         1 <0>        -0.2057 
     39 H1         73.5495   20.4980   30.7591 H         1 <0>         0.1150 
     40 H2         72.1521   24.5678   30.7586 H         1 <0>         0.1150 
     41 H3         74.1459   20.6932   33.1331 H         1 <0>         0.1150 
     42 H4         72.7793   24.7741   33.1437 H         1 <0>         0.1150 
     43 H5         75.2030   22.9242   29.2988 H         1 <0>         0.0600 
     44 H6         75.8406   21.6509   28.2943 H         1 <0>         0.0600 
     45 H7         75.3461   22.8630   26.2393 H         1 <0>         0.0600 
     46 H8         74.3108   23.9679   27.0806 H         1 <0>         0.0600 
     47 H9         73.8362   20.6817   28.6268 H         1 <0>         0.0600 
     48 H10        73.4422   21.6008   27.2284 H         1 <0>         0.0600 
     49 H11        74.5501   21.2143   37.4120 H         1 <0>         0.0600 
     50 H12        76.1453   21.2238   38.0994 H         1 <0>         0.0600 
     51 H13        76.7645   19.8778   35.8427 H         1 <0>         0.0600 
     52 H14        75.0568   19.5059   35.8427 H         1 <0>         0.0600 
     53 H15        72.5820   23.4363   28.7175 H         1 <0>         0.0600 
     54 H16        75.6721   23.2648   36.8182 H         1 <0>         0.0600 
     55 H17        77.4548   21.9537   27.9184 H         1 <0>         0.3537 
     56 H18        79.0472   22.5038   28.1624 H         1 <0>         0.3537 
     57 H19        80.2832   27.0344   28.3046 H         1 <0>         0.3600 
     58 H20        79.1104   28.1902   27.9436 H         1 <0>         0.3600 
     59 H21        77.0876   27.6027   27.0363 H         1 <0>         0.3000 
     60 H22        75.7039   21.7599   34.2885 H         1 <0>         0.3000 
     61 H23        70.9471   23.5440   27.7580 H         1 <0>         0.4286 
     62 H24        71.9154   20.4290   27.5428 H         1 <0>         0.4286 
@<TRIPOS>BOND
     1    1    3 ar   
     2    1   10 ar   
     3    1   39 1    
     4    2    4 ar   
     5    2   10 ar   
     6    2   40 1    
     7    3   11 ar   
     8    3   41 1    
     9    4   11 ar   
    10    4   42 1    
    11    5    6 1    
    12    5    7 1    
    13    5   43 1    
    14    5   44 1    
    15    6   12 1    
    16    6   45 1    
    17    6   46 1    
    18    7   16 1    
    19    7   47 1    
    20    7   48 1    
    21    8    9 1    
    22    8   17 1    
    23    8   49 1    
    24    8   50 1    
    25    9   18 1    
    26    9   51 1    
    27    9   52 1    
    28   10   16 1    
    29   11   19 1    
    30   12   13 ar   
    31   12   14 ar   
    32   13   23 1    
    33   13   26 ar   
    34   14   25 ar   
    35   14   32 2    
    36   15   24 1    
    37   15   25 ar   
    38   15   26 ar   
    39   16   21 1    
    40   16   53 1    
    41   17   20 1    
    42   17   27 1    
    43   17   54 1    
    44   18   30 1    
    45   18   33 2    
    46   19   27 am   BACKBONE|DICT|INTERRES
    47   19   34 2    
    48   20   31 1    
    49   20   35 2    
    50   21   22 1    
    51   21   28 1    
    52   21   29 1    
    53   22   36 1    
    54   22   37 1    
    55   22   38 1    
    56   23   55 1    
    57   23   56 1    
    58   24   57 1    
    59   24   58 1    
    60   25   59 1    
    61   27   60 1    
    62   28   61 1    
    63   29   62 1    
@<TRIPOS>SUBSTRUCTURE
     1 <0>         1 GROUP             0       ****    0 ROOT    
@<TRIPOS>MOLECULE
pur2-ligand
62   63    1
SMALL
USER_CHARGES


@<TRIPOS>ATOM
      1 C1         73.2125   21.5691   31.4289 C.ar      1 <0>        -0.1150 
      2 C2         72.4226   23.8515   31.6666 C.ar      1 <0>        -0.1150 
      3 C3         73.6875   21.6052   32.7526 C.ar      1 <0>        -0.1150 
      4 C4         72.9083   23.8872   32.9916 C.ar      1 <0>        -0.1150 
      5 C5         74.5872   23.0508   28.5232 C.3       1 <0>        -0.1200 
      6 C6         75.0790   23.4441   27.1242 C.3       1 <0>        -0.1200 
      7 C7         73.3214   22.1877   28.4702 C.3       1 <0>        -0.1200 
      8 C8         75.9765   20.5136   36.6415 C.3       1 <0>        -0.1200 
      9 C9         76.3959   20.1180   38.0699 C.3       1 <0>        -0.2200 
     10 C10        72.6012   22.7065   30.8592 C.ar      1 <0>        -0.1150 
     11 C11        73.5926   22.7775   33.5311 C.ar      1 <0>        -0.1150 
     12 C12        76.2815   24.3643   27.2048 C.ar      1 <0>        -0.0567 
     13 C13        77.4873   23.9383   27.6555 C.ar      1 <0>         0.1405 
     14 C14        76.1310   25.7743   26.8148 C.ar      1 <0>         0.5567 
     15 C15        78.4030   26.0643   27.6046 C.ar      1 <0>         0.5465 
     16 C16        72.2038   22.7474   29.3765 C.3       1 <0>         0.0550 
     17 C17        76.1421   22.0058   36.2737 C.3       1 <0>         0.0400 
     18 C18        76.5443   18.6020   38.2177 C.2       1 <0>         0.7000 
     19 C19        74.1968   22.8439   34.9081 C.2       1 <0>         0.6150 
     20 C20        77.6145   22.4607   36.1279 C.2       1 <0>         0.7000 
     21 C21        70.7819   22.2044   29.0450 C.3       1 <0>         0.5300 
     22 C22        70.4839   20.7559   29.4627 C.3       1 <0>         0.6171 
     23 N1         77.7697   22.6423   28.0364 N.pl3     1 <0>        -0.7254 
     24 N2         79.3456   27.0402   27.8427 N.pl3     1 <0>        -0.7850 
     25 N3         77.2069   26.5546   27.0742 N.pl3     1 <0>        -0.4225 
     26 N4         78.5623   24.8024   27.8419 N.2       1 <0>        -0.4815 
     27 N5         75.3889   22.2365   35.0426 N.am      1 <0>        -0.5000 
     28 O1         69.8737   23.0362   29.7235 O.3       1 <0>        -0.6936 
     29 O2         70.5459   22.2354   27.6468 O.3       1 <0>        -0.6936 
     30 O3         77.3470   18.0346   37.4417 O.co2     1 <0>        -0.8000 
     31 O4         78.2254   22.2367   35.0542 O.co2     1 <0>        -0.8000 
     32 O5         75.1385   26.2389   26.2513 O.2       1 <0>        -0.5000 
     33 O6         75.8965   18.0387   39.1250 O.co2     1 <0>        -0.8000 
     34 O7         73.6355   23.4589   35.8136 O.2       1 <0>        -0.5000 
     35 O8         78.1450   23.0356   37.1039 O.co2     1 <0>        -0.8000 
     36 F1         70.5464   20.6369   30.7857 F         1 <0>        -0.2057 
     37 F2         69.2635   20.3932   29.0655 F         1 <0>        -0.2057 
     38 F3         71.3699   19.9435   28.8860 F         1 <0>        -0.2057 
     39 H1         73.3427   20.6642   30.8545 H         1 <0>         0.1150 
     40 H2         71.9464   24.7302   31.2544 H         1 <0>         0.1150 
     41 H3         74.1443   20.7210   33.1630 H         1 <0>         0.1150 
     42 H4         72.7943   24.7896   33.5746 H         1 <0>         0.1150 
     43 H5         74.4091   23.9679   29.0881 H         1 <0>         0.0600 
     44 H6         75.3543   22.5128   29.0811 H         1 <0>         0.0600 
     45 H7         75.3474   22.5598   26.5558 H         1 <0>         0.0600 
     46 H8         74.2666   23.9175   26.5712 H         1 <0>         0.0600 
     47 H9         73.5679   21.1536   28.7088 H         1 <0>         0.0600 
     48 H10        72.9771   22.1534   27.4425 H         1 <0>         0.0600 
     49 H11        76.5357   19.9273   35.9115 H         1 <0>         0.0600 
     50 H12        74.9344   20.2207   36.5089 H         1 <0>         0.0600 
     51 H13        75.6627   20.4907   38.7867 H         1 <0>         0.0600 
     52 H14        77.3448   20.5795   38.3344 H         1 <0>         0.0600 
     53 H15        72.1670   23.8057   29.1273 H         1 <0>         0.0600 
     54 H16        75.7016   22.6045   37.0730 H         1 <0>         0.0600 
     55 H17        77.0298   21.9568   28.0947 H         1 <0>         0.3537 
     56 H18        78.6100   22.3950   28.5402 H         1 <0>         0.3537 
     57 H19        80.2586   26.8371   28.2420 H         1 <0>         0.3600 
     58 H20        79.1743   28.0335   27.7584 H         1 <0>         0.3600 
     59 H21        77.1659   27.5203   26.7744 H         1 <0>         0.3000 
     60 H22        75.7535   21.7391   34.2376 H         1 <0>         0.3000 
     61 H23        70.1430   23.9473   29.5789 H         1 <0>         0.4286 
     62 H24        70.6540   21.3489   27.3235 H         1 <0>         0.4286 
@<TRIPOS>BOND
     1    1    3 ar   
     2    1   10 ar   
     3    1   39 1    
     4    2    4 ar   
     5    2   10 ar   
     6    2   40 1    
     7    3   11 ar   
     8    3   41 1    
     9    4   11 ar   
    10    4   42 1    
    11    5    6 1    
    12    5    7 1    
    13    5   43 1    
    14    5   44 1    
    15    6   12 1    
    16    6   45 1    
    17    6   46 1    
    18    7   16 1    
    19    7   47 1    
    20    7   48 1    
    21    8    9 1    
    22    8   17 1    
    23    8   49 1    
    24    8   50 1    
    25    9   18 1    
    26    9   51 1    
    27    9   52 1    
    28   10   16 1    
    29   11   19 1    
    30   12   13 ar   
    31   12   14 ar   
    32   13   23 1    
    33   13   26 ar   
    34   14   25 ar   
    35   14   32 2    
    36   15   24 1    
    37   15   25 ar   
    38   15   26 ar   
    39   16   21 1    
    40   16   53 1    
    41   17   20 1    
    42   17   27 1    
    43   17   54 1    
    44   18   30 1    
    45   18   33 2    
    46   19   27 am   BACKBONE|DICT|INTERRES
    47   19   34 2    
    48   20   31 1    
    49   20   35 2    
    50   21   22 1    
    51   21   28 1    
    52   21   29 1    
    53   22   36 1    
    54   22   37 1    
    55   22   38 1    
    56   23   55 1    
    57   23   56 1    
    58   24   57 1    
    59   24   58 1    
    60   25   59 1    
    61   27   60 1    
    62   28   61 1    
    63   29   62 1    
@<TRIPOS>SUBSTRUCTURE
     1 <0>         1 GROUP             0       ****    0 ROOT    
@<TRIPOS>MOLECULE
pur2-ligand
62   63    1
SMALL
USER_CHARGES


@<TRIPOS>ATOM
      1 C1         73.3880   21.4967   31.0947 C.ar      1 <0>        -0.1150 
      2 C2         72.3011   23.6539   30.8319 C.ar      1 <0>        -0.1150 
      3 C3         73.6245   21.7840   32.4508 C.ar      1 <0>        -0.1150 
      4 C4         72.5459   23.9464   32.1865 C.ar      1 <0>        -0.1150 
      5 C5         74.9184   22.1870   28.1168 C.3       1 <0>        -0.1200 
      6 C6         74.9696   23.4722   27.2696 C.3       1 <0>        -0.1200 
      7 C7         73.5764   21.4501   28.0689 C.3       1 <0>        -0.1200 
      8 C8         75.3483   22.6949   36.8406 C.3       1 <0>        -0.1200 
      9 C9         76.3297   22.0266   35.8515 C.3       1 <0>        -0.2200 
     10 C10        72.7135   22.4237   30.2760 C.ar      1 <0>        -0.1150 
     11 C11        73.1946   23.0062   33.0114 C.ar      1 <0>        -0.1150 
     12 C12        76.2384   24.3312   27.3805 C.ar      1 <0>        -0.0567 
     13 C13        77.4574   23.9169   27.8365 C.ar      1 <0>         0.1405 
     14 C14        76.1097   25.7349   26.9484 C.ar      1 <0>         0.5567 
     15 C15        78.3944   26.0339   27.6774 C.ar      1 <0>         0.5465 
     16 C16        72.3868   22.0728   28.8244 C.3       1 <0>         0.0550 
     17 C17        73.8867   22.2128   36.6673 C.3       1 <0>         0.0400 
     18 C18        77.7778   22.4777   36.0000 C.2       1 <0>         0.7000 
     19 C19        73.4914   23.3345   34.4428 C.2       1 <0>         0.6150 
     20 C20        72.8833   22.7569   37.6928 C.2       1 <0>         0.7000 
     21 C21        71.0633   21.2524   28.6217 C.3       1 <0>         0.5300 
     22 C22        70.0238   21.3804   29.7573 C.3       1 <0>         0.6171 
     23 N1         77.7882   22.6401   28.2427 N.pl3     1 <0>        -0.7254 
     24 N2         79.3460   27.0149   27.8429 N.pl3     1 <0>        -0.7850 
     25 N3         77.1964   26.5115   27.1551 N.pl3     1 <0>        -0.4225 
     26 N4         78.5451   24.7830   27.9676 N.2       1 <0>        -0.4815 
     27 N5         73.3940   22.2961   35.2900 N.am      1 <0>        -0.5000 
     28 O1         70.4339   21.7124   27.4426 O.3       1 <0>        -0.6936 
     29 O2         71.3323   19.8681   28.5207 O.3       1 <0>        -0.6936 
     30 O3         78.5459   22.2363   35.0428 O.co2     1 <0>        -0.8000 
     31 O4         72.1296   21.9237   38.2435 O.co2     1 <0>        -0.8000 
     32 O5         75.1160   26.2066   26.3922 O.2       1 <0>        -0.5000 
     33 O6         78.1459   23.0362   37.0572 O.co2     1 <0>        -0.8000 
     34 O7         73.8008   24.4796   34.7690 O.2       1 <0>        -0.5000 
     35 O8         72.8927   23.9861   37.9219 O.co2     1 <0>        -0.8000 
     36 F1         69.6135   22.6389   29.8731 F         1 <0>        -0.2057 
     37 F2         68.9638   20.6135   29.4886 F         1 <0>        -0.2057 
     38 F3         70.5460   20.9829   30.9147 F         1 <0>        -0.2057 
     39 H1         73.7138   20.5564   30.6793 H         1 <0>         0.1150 
     40 H2         71.7747   24.3781   30.2302 H         1 <0>         0.1150 
     41 H3         74.1458   21.0558   33.0539 H         1 <0>         0.1150 
     42 H4         72.2294   24.8973   32.5901 H         1 <0>         0.1150 
     43 H5         75.2024   22.3952   29.1485 H         1 <0>         0.0600 
     44 H6         75.6434   21.4782   27.7195 H         1 <0>         0.0600 
     45 H7         74.8171   23.2266   26.2187 H         1 <0>         0.0600 
     46 H8         74.1222   24.0948   27.5606 H         1 <0>         0.0600 
     47 H9         73.7459   20.4395   28.4286 H         1 <0>         0.0600 
     48 H10        73.2814   21.3325   27.0427 H         1 <0>         0.0600 
     49 H11        75.6647   22.4896   37.8643 H         1 <0>         0.0600 
     50 H12        75.4002   23.7790   36.7300 H         1 <0>         0.0600 
     51 H13        76.0393   22.2359   34.8226 H         1 <0>         0.0600 
     52 H14        76.2968   20.9438   35.9685 H         1 <0>         0.0600 
     53 H15        72.2104   23.0363   28.3554 H         1 <0>         0.0600 
     54 H16        73.9199   21.1394   36.8592 H         1 <0>         0.0600 
     55 H17        77.0595   21.9511   28.3602 H         1 <0>         0.3537 
     56 H18        78.6250   22.4376   28.7717 H         1 <0>         0.3537 
     57 H19        80.2613   26.8293   28.2452 H         1 <0>         0.3600 
     58 H20        79.1739   28.0036   27.7184 H         1 <0>         0.3600 
     59 H21        77.1537   27.4681   26.8288 H         1 <0>         0.3000 
     60 H22        73.0432   21.4326   34.9069 H         1 <0>         0.3000 
     61 H23        70.5473   21.0407   26.7796 H         1 <0>         0.4286 
     62 H24        70.5264   19.4058   28.6978 H         1 <0>         0.4286 
@<TRIPOS>BOND
     1    1    3 ar   
     2    1   10 ar   
     3    1   39 1    
     4    2    4 ar   
     5    2   10 ar   
     6    2   40 1    
     7    3   11 ar   
     8    3   41 1    
     9    4   11 ar   
    10    4   42 1    
    11    5    6 1    
    12    5    7 1    
    13    5   43 1    
    14    5   44 1    
    15    6   12 1    
    16    6   45 1    
    17    6   46 1    
    18    7   16 1    
    19    7   47 1    
    20    7   48 1    
    21    8    9 1    
    22    8   17 1    
    23    8   49 1    
    24    8   50 1    
    25    9   18 1    
    26    9   51 1    
    27    9   52 1    
    28   10   16 1    
    29   11   19 1    
    30   12   13 ar   
    31   12   14 ar   
    32   13   23 1    
    33   13   26 ar   
    34   14   25 ar   
    35   14   32 2    
    36   15   24 1    
    37   15   25 ar   
    38   15   26 ar   
    39   16   21 1    
    40   16   53 1    
    41   17   20 1    
    42   17   27 1    
    43   17   54 1    
    44   18   30 1    
    45   18   33 2    
    46   19   27 am   BACKBONE|DICT|INTERRES
    47   19   34 2    
    48   20   31 1    
    49   20   35 2    
    50   21   22 1    
    51   21   28 1    
    52   21   29 1    
    53   22   36 1    
    54   22   37 1    
    55   22   38 1    
    56   23   55 1    
    57   23   56 1    
    58   24   57 1    
    59   24   58 1    
    60   25   59 1    
    61   27   60 1    
    62   28   61 1    
    63   29   62 1    
@<TRIPOS>SUBSTRUCTURE
     1 <0>         1 GROUP             0       ****    0 ROOT    
@<TRIPOS>MOLECULE
pur2-ligand
62   63    1
SMALL
USER_CHARGES


@<TRIPOS>ATOM
      1 C1         73.3778   21.4356   31.2433 C.ar      1 <0>        -0.1150 
      2 C2         72.5866   23.7262   31.2409 C.ar      1 <0>        -0.1150 
      3 C3         73.7374   21.5628   32.5980 C.ar      1 <0>        -0.1150 
      4 C4         72.9447   23.8483   32.6051 C.ar      1 <0>        -0.1150 
      5 C5         75.0236   22.3850   28.2759 C.3       1 <0>        -0.1200 
      6 C6         75.1715   23.4195   27.1443 C.3       1 <0>        -0.1200 
      7 C7         73.6602   21.6909   28.2387 C.3       1 <0>        -0.1200 
      8 C8         75.6715   20.7892   36.6594 C.3       1 <0>        -0.1200 
      9 C9         76.3394   20.2689   37.9522 C.3       1 <0>        -0.2200 
     10 C10        72.8362   22.5255   30.5341 C.ar      1 <0>        -0.1150 
     11 C11        73.5929   22.7883   33.2785 C.ar      1 <0>        -0.1150 
     12 C12        76.3622   24.3683   27.2821 C.ar      1 <0>        -0.0567 
     13 C13        77.6132   23.9861   27.6556 C.ar      1 <0>         0.1405 
     14 C14        76.1457   25.7878   26.9538 C.ar      1 <0>         0.5567 
     15 C15        78.4334   26.1520   27.6386 C.ar      1 <0>         0.5465 
     16 C16        72.5315   22.3988   29.0302 C.3       1 <0>         0.0550 
     17 C17        76.0441   22.2161   36.1742 C.3       1 <0>         0.0400 
     18 C18        76.4466   18.7420   37.9607 C.2       1 <0>         0.7000 
     19 C19        74.1183   22.9526   34.6842 C.2       1 <0>         0.6150 
     20 C20        77.5670   22.5236   36.0909 C.2       1 <0>         0.7000 
     21 C21        71.1186   21.8164   28.6644 C.3       1 <0>         0.5300 
     22 C22        70.1012   21.7913   29.8209 C.3       1 <0>         0.6171 
     23 N1         78.0232   22.6957   27.9065 N.pl3     1 <0>        -0.7254 
     24 N2         79.3447   27.1592   27.8475 N.pl3     1 <0>        -0.7850 
     25 N3         77.2008   26.6035   27.1764 N.pl3     1 <0>        -0.4225 
     26 N4         78.6508   24.8953   27.8424 N.2       1 <0>        -0.4815 
     27 N5         75.3470   22.4424   34.8987 N.am      1 <0>        -0.5000 
     28 O1         70.5518   22.6363   27.6543 O.3       1 <0>        -0.6936 
     29 O2         71.2236   20.4707   28.2277 O.3       1 <0>        -0.6936 
     30 O3         75.6460   18.1048   38.6777 O.co2     1 <0>        -0.8000 
     31 O4         78.1879   22.2363   35.0427 O.co2     1 <0>        -0.8000 
     32 O5         75.1140   26.2355   26.4517 O.2       1 <0>        -0.5000 
     33 O6         77.3459   18.2363   37.2505 O.co2     1 <0>        -0.8000 
     34 O7         73.4610   23.5396   35.5416 O.2       1 <0>        -0.5000 
     35 O8         78.1418   23.0362   37.0799 O.co2     1 <0>        -0.8000 
     36 F1         69.8875   23.0329   30.2429 F         1 <0>        -0.2057 
     37 F2         68.9390   21.2873   29.4133 F         1 <0>        -0.2057 
     38 F3         70.5462   21.0365   30.8225 F         1 <0>        -0.2057 
     39 H1         73.5279   20.4933   30.7421 H         1 <0>         0.1150 
     40 H2         72.1454   24.5716   30.7301 H         1 <0>         0.1150 
     41 H3         74.1446   20.7087   33.1125 H         1 <0>         0.1150 
     42 H4         72.7842   24.7890   33.1119 H         1 <0>         0.1150 
     43 H5         75.2027   22.8436   29.2488 H         1 <0>         0.0600 
     44 H6         75.7700   21.6018   28.1594 H         1 <0>         0.0600 
     45 H7         75.2373   22.9190   26.1799 H         1 <0>         0.0600 
     46 H8         74.2498   24.0018   27.1103 H         1 <0>         0.0600 
     47 H9         73.7753   20.6686   28.5952 H         1 <0>         0.0600 
     48 H10        73.3701   21.5854   27.1967 H         1 <0>         0.0600 
     49 H11        75.8983   20.0990   35.8429 H         1 <0>         0.0600 
     50 H12        74.5890   20.7290   36.7908 H         1 <0>         0.0600 
     51 H13        75.7801   20.6082   38.8246 H         1 <0>         0.0600 
     52 H14        77.3460   20.6622   38.0708 H         1 <0>         0.0600 
     53 H15        72.5442   23.4350   28.6934 H         1 <0>         0.0600 
     54 H16        75.6452   22.9234   36.9033 H         1 <0>         0.0600 
     55 H17        77.3428   21.9550   27.9923 H         1 <0>         0.3537 
     56 H18        78.9176   22.4923   28.3273 H         1 <0>         0.3537 
     57 H19        80.2691   26.9869   28.2331 H         1 <0>         0.3600 
     58 H20        79.1258   28.1459   27.7998 H         1 <0>         0.3600 
     59 H21        77.1093   27.5714   26.8985 H         1 <0>         0.3000 
     60 H22        75.7952   21.9984   34.1082 H         1 <0>         0.3000 
     61 H23        70.9459   23.5209   27.7262 H         1 <0>         0.4286 
     62 H24        71.8618   20.4250   27.5310 H         1 <0>         0.4286 
@<TRIPOS>BOND
     1    1    3 ar   
     2    1   10 ar   
     3    1   39 1    
     4    2    4 ar   
     5    2   10 ar   
     6    2   40 1    
     7    3   11 ar   
     8    3   41 1    
     9    4   11 ar   
    10    4   42 1    
    11    5    6 1    
    12    5    7 1    
    13    5   43 1    
    14    5   44 1    
    15    6   12 1    
    16    6   45 1    
    17    6   46 1    
    18    7   16 1    
    19    7   47 1    
    20    7   48 1    
    21    8    9 1    
    22    8   17 1    
    23    8   49 1    
    24    8   50 1    
    25    9   18 1    
    26    9   51 1    
    27    9   52 1    
    28   10   16 1    
    29   11   19 1    
    30   12   13 ar   
    31   12   14 ar   
    32   13   23 1    
    33   13   26 ar   
    34   14   25 ar   
    35   14   32 2    
    36   15   24 1    
    37   15   25 ar   
    38   15   26 ar   
    39   16   21 1    
    40   16   53 1    
    41   17   20 1    
    42   17   27 1    
    43   17   54 1    
    44   18   30 1    
    45   18   33 2    
    46   19   27 am   BACKBONE|DICT|INTERRES
    47   19   34 2    
    48   20   31 1    
    49   20   35 2    
    50   21   22 1    
    51   21   28 1    
    52   21   29 1    
    53   22   36 1    
    54   22   37 1    
    55   22   38 1    
    56   23   55 1    
    57   23   56 1    
    58   24   57 1    
    59   24   58 1    
    60   25   59 1    
    61   27   60 1    
    62   28   61 1    
    63   29   62 1    
@<TRIPOS>SUBSTRUCTURE
     1 <0>         1 GROUP             0       ****    0 ROOT    
@<TRIPOS>MOLECULE
pur2-ligand
62   63    1
SMALL
USER_CHARGES


@<TRIPOS>ATOM
      1 C1         72.4769   23.9135   31.7004 C.ar      1 <0>        -0.1150 
      2 C2         73.2342   21.6155   31.5113 C.ar      1 <0>        -0.1150 
      3 C3         72.9434   23.9645   33.0317 C.ar      1 <0>        -0.1150 
      4 C4         73.6992   21.6697   32.8386 C.ar      1 <0>        -0.1150 
      5 C5         74.7236   22.9831   28.5811 C.3       1 <0>        -0.1200 
      6 C6         75.2242   23.3656   27.1822 C.3       1 <0>        -0.1200 
      7 C7         73.4254   22.1678   28.5352 C.3       1 <0>        -0.1200 
      8 C8         76.6209   20.6547   36.5696 C.3       1 <0>        -0.1200 
      9 C9         75.5242   19.5810   36.7019 C.3       1 <0>        -0.2200 
     10 C10        72.6582   22.7556   30.9113 C.ar      1 <0>        -0.1150 
     11 C11        73.6238   22.8607   33.5924 C.ar      1 <0>        -0.1150 
     12 C12        76.3861   24.3375   27.2805 C.ar      1 <0>        -0.0567 
     13 C13        77.6337   23.9406   27.6294 C.ar      1 <0>         0.1405 
     14 C14        76.1463   25.7678   27.0374 C.ar      1 <0>         0.5567 
     15 C15        78.4420   26.1072   27.7206 C.ar      1 <0>         0.5465 
     16 C16        72.3117   22.7859   29.4154 C.3       1 <0>         0.0550 
     17 C17        76.1613   22.1179   36.3695 C.3       1 <0>         0.0400 
     18 C18        76.1215   18.1714   36.8134 C.2       1 <0>         0.7000 
     19 C19        74.2463   22.9569   34.9619 C.2       1 <0>         0.6150 
     20 C20        77.4651   22.9230   36.2427 C.2       1 <0>         0.7000 
     21 C21        70.8724   22.3365   29.0320 C.3       1 <0>         0.5300 
     22 C22        70.5681   20.8468   29.2631 C.3       1 <0>         0.6171 
     23 N1         77.9986   22.6363   27.8792 N.pl3     1 <0>        -0.7254 
     24 N2         79.3468   27.1088   27.9800 N.pl3     1 <0>        -0.7850 
     25 N3         77.1973   26.5766   27.3074 N.pl3     1 <0>        -0.4225 
     26 N4         78.6736   24.8408   27.8420 N.2       1 <0>        -0.4815 
     27 N5         75.3676   22.2360   35.1423 N.am      1 <0>        -0.5000 
     28 O1         69.9513   23.0366   29.8374 O.3       1 <0>        -0.6936 
     29 O2         70.6523   22.6363   27.6619 O.3       1 <0>        -0.6936 
     30 O3         75.3493   17.2031   36.6500 O.co2     1 <0>        -0.8000 
     31 O4         78.2415   22.6383   35.2988 O.co2     1 <0>        -0.8000 
     32 O5         75.1022   26.2336   26.5810 O.2       1 <0>        -0.5000 
     33 O6         77.3470   18.0739   37.0560 O.co2     1 <0>        -0.8000 
     34 O7         73.7619   23.6888   35.8252 O.2       1 <0>        -0.5000 
     35 O8         77.7457   23.7256   37.1572 O.co2     1 <0>        -0.8000 
     36 F1         71.4414   20.0470   28.6480 F         1 <0>        -0.2057 
     37 F2         70.6153   20.6382   30.5743 F         1 <0>        -0.2057 
     38 F3         69.3461   20.5409   28.8313 F         1 <0>        -0.2057 
     39 H1         72.0220   24.7941   31.2668 H         1 <0>         0.1150 
     40 H2         73.3576   20.6989   30.9530 H         1 <0>         0.1150 
     41 H3         72.8358   24.8792   33.5974 H         1 <0>         0.1150 
     42 H4         74.1429   20.7854   33.2654 H         1 <0>         0.1150 
     43 H5         74.5792   23.8989   29.1569 H         1 <0>         0.0600 
     44 H6         75.4855   22.4201   29.1222 H         1 <0>         0.0600 
     45 H7         75.5324   22.4710   26.6442 H         1 <0>         0.0600 
     46 H8         74.4133   23.8041   26.5978 H         1 <0>         0.0600 
     47 H9         73.6361   21.1345   28.8068 H         1 <0>         0.0600 
     48 H10        73.0891   22.1080   27.5008 H         1 <0>         0.0600 
     49 H11        77.2307   20.6262   37.4742 H         1 <0>         0.0600 
     50 H12        77.2802   20.3594   35.7492 H         1 <0>         0.0600 
     51 H13        74.8619   19.6056   35.8373 H         1 <0>         0.0600 
     52 H14        74.9081   19.7743   37.5797 H         1 <0>         0.0600 
     53 H15        72.3361   23.8375   29.1662 H         1 <0>         0.0600 
     54 H16        75.5948   22.4568   37.2386 H         1 <0>         0.0600 
     55 H17        77.2847   21.9261   27.9627 H         1 <0>         0.3537 
     56 H18        78.8643   22.4115   28.3478 H         1 <0>         0.3537 
     57 H19        80.2848   26.9185   28.3237 H         1 <0>         0.3600 
     58 H20        79.1312   28.0978   27.9723 H         1 <0>         0.3600 
     59 H21        77.0855   27.5619   27.1140 H         1 <0>         0.3000 
     60 H22        75.7006   21.6720   34.3668 H         1 <0>         0.3000 
     61 H23        70.1453   23.9725   29.7783 H         1 <0>         0.4286 
     62 H24        70.9975   23.5295   27.4975 H         1 <0>         0.4286 
@<TRIPOS>BOND
     1    1    3 ar   
     2    1   10 ar   
     3    1   39 1    
     4    2    4 ar   
     5    2   10 ar   
     6    2   40 1    
     7    3   11 ar   
     8    3   41 1    
     9    4   11 ar   
    10    4   42 1    
    11    5    6 1    
    12    5    7 1    
    13    5   43 1    
    14    5   44 1    
    15    6   12 1    
    16    6   45 1    
    17    6   46 1    
    18    7   16 1    
    19    7   47 1    
    20    7   48 1    
    21    8    9 1    
    22    8   17 1    
    23    8   49 1    
    24    8   50 1    
    25    9   18 1    
    26    9   51 1    
    27    9   52 1    
    28   10   16 1    
    29   11   19 1    
    30   12   13 ar   
    31   12   14 ar   
    32   13   23 1    
    33   13   26 ar   
    34   14   25 ar   
    35   14   32 2    
    36   15   24 1    
    37   15   25 ar   
    38   15   26 ar   
    39   16   21 1    
    40   16   53 1    
    41   17   20 1    
    42   17   27 1    
    43   17   54 1    
    44   18   30 1    
    45   18   33 2    
    46   19   27 am   BACKBONE|DICT|INTERRES
    47   19   34 2    
    48   20   31 1    
    49   20   35 2    
    50   21   22 1    
    51   21   28 1    
    52   21   29 1    
    53   22   36 1    
    54   22   37 1    
    55   22   38 1    
    56   23   55 1    
    57   23   56 1    
    58   24   57 1    
    59   24   58 1    
    60   25   59 1    
    61   27   60 1    
    62   28   61 1    
    63   29   62 1    
@<TRIPOS>SUBSTRUCTURE
     1 <0>         1 GROUP             0       ****    0 ROOT    
@<TRIPOS>MOLECULE
pur2-ligand
62   63    1
SMALL
USER_CHARGES


@<TRIPOS>ATOM
      1 C1         73.3873   21.4363   31.2936 C.ar      1 <0>        -0.1150 
      2 C2         72.5923   23.7221   31.2896 C.ar      1 <0>        -0.1150 
      3 C3         73.7419   21.5585   32.6492 C.ar      1 <0>        -0.1150 
      4 C4         72.9459   23.8419   32.6550 C.ar      1 <0>        -0.1150 
      5 C5         75.0820   22.4325   28.3556 C.3       1 <0>        -0.1200 
      6 C6         75.2514   23.4066   27.1757 C.3       1 <0>        -0.1200 
      7 C7         73.7322   21.7098   28.2974 C.3       1 <0>        -0.1200 
      8 C8         76.4776   20.7714   36.6033 C.3       1 <0>        -0.1200 
      9 C9         75.4371   19.6413   36.7134 C.3       1 <0>        -0.2200 
     10 C10        72.8546   22.5259   30.5812 C.ar      1 <0>        -0.1150 
     11 C11        73.6038   22.7853   33.3298 C.ar      1 <0>        -0.1150 
     12 C12        76.4258   24.3751   27.3105 C.ar      1 <0>        -0.0567 
     13 C13        77.6920   24.0059   27.6401 C.ar      1 <0>         0.1405 
     14 C14        76.1738   25.7994   27.0427 C.ar      1 <0>         0.5567 
     15 C15        78.4595   26.1897   27.7253 C.ar      1 <0>         0.5465 
     16 C16        72.5808   22.4009   29.0722 C.3       1 <0>         0.0550 
     17 C17        75.9710   22.2079   36.3182 C.3       1 <0>         0.0400 
     18 C18        76.1143   18.2654   36.8114 C.2       1 <0>         0.7000 
     19 C19        74.1459   22.9652   34.7311 C.2       1 <0>         0.6150 
     20 C20        77.2584   23.0574   36.2428 C.2       1 <0>         0.7000 
     21 C21        71.1789   21.8195   28.6746 C.3       1 <0>         0.5300 
     22 C22        70.1262   21.8008   29.8038 C.3       1 <0>         0.6171 
     23 N1         78.1261   22.7156   27.8427 N.pl3     1 <0>        -0.7254 
     24 N2         79.3460   27.2080   27.9881 N.pl3     1 <0>        -0.7850 
     25 N3         77.2064   26.6318   27.3116 N.pl3     1 <0>        -0.4225 
     26 N4         78.7156   24.9292   27.8427 N.2       1 <0>        -0.4815 
     27 N5         75.2383   22.2363   35.0427 N.am      1 <0>        -0.5000 
     28 O1         70.6568   22.6363   27.6415 O.3       1 <0>        -0.6936 
     29 O2         71.2958   20.4732   28.2437 O.3       1 <0>        -0.6936 
     30 O3         75.3960   17.2569   36.6426 O.co2     1 <0>        -0.8000 
     31 O4         78.1537   22.6967   35.4427 O.co2     1 <0>        -0.8000 
     32 O5         75.1307   26.2362   26.5573 O.2       1 <0>        -0.5000 
     33 O6         77.3459   18.2338   37.0444 O.co2     1 <0>        -0.8000 
     34 O7         73.6313   23.7745   35.5018 O.2       1 <0>        -0.5000 
     35 O8         77.3996   23.9922   37.0589 O.co2     1 <0>        -0.8000 
     36 F1         69.9182   23.0363   30.2427 F         1 <0>        -0.2057 
     37 F2         68.9609   21.3176   29.3692 F         1 <0>        -0.2057 
     38 F3         70.5460   21.0363   30.8077 F         1 <0>        -0.2057 
     39 H1         73.5382   20.4963   30.7892 H         1 <0>         0.1150 
     40 H2         72.1507   24.5672   30.7786 H         1 <0>         0.1150 
     41 H3         74.1459   20.6989   33.1561 H         1 <0>         0.1150 
     42 H4         72.7834   24.7834   33.1599 H         1 <0>         0.1150 
     43 H5         75.2087   22.9507   29.3069 H         1 <0>         0.0600 
     44 H6         75.8555   21.6679   28.3204 H         1 <0>         0.0600 
     45 H7         75.3492   22.8557   26.2427 H         1 <0>         0.0600 
     46 H8         74.3217   23.9695   27.0808 H         1 <0>         0.0600 
     47 H9         73.8588   20.6889   28.6529 H         1 <0>         0.0600 
     48 H10        73.4572   21.5999   27.2512 H         1 <0>         0.0600 
     49 H11        77.0452   20.7918   37.5356 H         1 <0>         0.0600 
     50 H12        77.1882   20.4784   35.8286 H         1 <0>         0.0600 
     51 H13        74.7829   19.6386   35.8427 H         1 <0>         0.0600 
     52 H14        74.8031   19.7924   37.5867 H         1 <0>         0.0600 
     53 H15        72.5943   23.4363   28.7390 H         1 <0>         0.0600 
     54 H16        75.3392   22.5556   37.1374 H         1 <0>         0.0600 
     55 H17        77.4688   21.9524   27.9133 H         1 <0>         0.3537 
     56 H18        79.0607   22.5051   28.1579 H         1 <0>         0.3537 
     57 H19        80.2849   27.0342   28.3370 H         1 <0>         0.3600 
     58 H20        79.1079   28.1918   27.9943 H         1 <0>         0.3600 
     59 H21        77.0804   27.6121   27.1024 H         1 <0>         0.3000 
     60 H22        75.5957   21.6051   34.3335 H         1 <0>         0.3000 
     61 H23        70.9846   23.5423   27.7581 H         1 <0>         0.4286 
     62 H24        71.9404   20.4302   27.5526 H         1 <0>         0.4286 
@<TRIPOS>BOND
     1    1    3 ar   
     2    1   10 ar   
     3    1   39 1    
     4    2    4 ar   
     5    2   10 ar   
     6    2   40 1    
     7    3   11 ar   
     8    3   41 1    
     9    4   11 ar   
    10    4   42 1    
    11    5    6 1    
    12    5    7 1    
    13    5   43 1    
    14    5   44 1    
    15    6   12 1    
    16    6   45 1    
    17    6   46 1    
    18    7   16 1    
    19    7   47 1    
    20    7   48 1    
    21    8    9 1    
    22    8   17 1    
    23    8   49 1    
    24    8   50 1    
    25    9   18 1    
    26    9   51 1    
    27    9   52 1    
    28   10   16 1    
    29   11   19 1    
    30   12   13 ar   
    31   12   14 ar   
    32   13   23 1    
    33   13   26 ar   
    34   14   25 ar   
    35   14   32 2    
    36   15   24 1    
    37   15   25 ar   
    38   15   26 ar   
    39   16   21 1    
    40   16   53 1    
    41   17   20 1    
    42   17   27 1    
    43   17   54 1    
    44   18   30 1    
    45   18   33 2    
    46   19   27 am   BACKBONE|DICT|INTERRES
    47   19   34 2    
    48   20   31 1    
    49   20   35 2    
    50   21   22 1    
    51   21   28 1    
    52   21   29 1    
    53   22   36 1    
    54   22   37 1    
    55   22   38 1    
    56   23   55 1    
    57   23   56 1    
    58   24   57 1    
    59   24   58 1    
    60   25   59 1    
    61   27   60 1    
    62   28   61 1    
    63   29   62 1    
@<TRIPOS>SUBSTRUCTURE
     1 <0>         1 GROUP             0       ****    0 ROOT    
@<TRIPOS>MOLECULE
pur2-ligand
62   63    1
SMALL
USER_CHARGES


@<TRIPOS>ATOM
      1 C1         73.3920   21.4362   31.2331 C.ar      1 <0>        -0.1150 
      2 C2         72.5899   23.7201   31.2400 C.ar      1 <0>        -0.1150 
      3 C3         73.7457   21.5558   32.5893 C.ar      1 <0>        -0.1150 
      4 C4         72.9459   23.8373   32.6063 C.ar      1 <0>        -0.1150 
      5 C5         75.0171   22.3527   28.2267 C.3       1 <0>        -0.1200 
      6 C6         75.1268   23.4513   27.1516 C.3       1 <0>        -0.1200 
      7 C7         73.6486   21.6730   28.2225 C.3       1 <0>        -0.1200 
      8 C8         75.7123   20.7425   36.6485 C.3       1 <0>        -0.1200 
      9 C9         76.3618   20.2518   37.9636 C.3       1 <0>        -0.2200 
     10 C10        72.8449   22.5235   30.5270 C.ar      1 <0>        -0.1150 
     11 C11        73.5971   22.7759   33.2766 C.ar      1 <0>        -0.1150 
     12 C12        76.3386   24.3754   27.2739 C.ar      1 <0>        -0.0567 
     13 C13        77.5822   23.9849   27.6662 C.ar      1 <0>         0.1405 
     14 C14        76.1421   25.7907   26.9185 C.ar      1 <0>         0.5567 
     15 C15        78.4255   26.1414   27.6284 C.ar      1 <0>         0.5465 
     16 C16        72.5330   22.3921   29.0248 C.3       1 <0>         0.0550 
     17 C17        76.0472   22.1829   36.1748 C.3       1 <0>         0.0400 
     18 C18        76.5458   18.7309   37.9957 C.2       1 <0>         0.7000 
     19 C19        74.1189   22.9287   34.6861 C.2       1 <0>         0.6150 
     20 C20        77.5635   22.5152   36.0905 C.2       1 <0>         0.7000 
     21 C21        71.1167   21.8134   28.6655 C.3       1 <0>         0.5300 
     22 C22        70.1004   21.7932   29.8234 C.3       1 <0>         0.6171 
     23 N1         77.9772   22.6974   27.9558 N.pl3     1 <0>        -0.7254 
     24 N2         79.3459   27.1393   27.8460 N.pl3     1 <0>        -0.7850 
     25 N3         77.2015   26.6005   27.1475 N.pl3     1 <0>        -0.4225 
     26 N4         78.6288   24.8842   27.8427 N.2       1 <0>        -0.4815 
     27 N5         75.3462   22.4130   34.9019 N.am      1 <0>        -0.5000 
     28 O1         70.5590   22.6363   27.6541 O.3       1 <0>        -0.6936 
     29 O2         71.2118   20.4662   28.2309 O.3       1 <0>        -0.6936 
     30 O3         77.3459   18.2363   37.1679 O.co2     1 <0>        -0.8000 
     31 O4         78.1896   22.2363   35.0428 O.co2     1 <0>        -0.8000 
     32 O5         75.1219   26.2362   26.3918 O.2       1 <0>        -0.5000 
     33 O6         75.9280   18.0901   38.8711 O.co2     1 <0>        -0.8000 
     34 O7         73.4595   23.5112   35.5454 O.2       1 <0>        -0.5000 
     35 O8         78.1272   23.0363   37.0812 O.co2     1 <0>        -0.8000 
     36 F1         69.8944   23.0362   30.2427 F         1 <0>        -0.2057 
     37 F2         68.9329   21.2959   29.4213 F         1 <0>        -0.2057 
     38 F3         70.5460   21.0364   30.8241 F         1 <0>        -0.2057 
     39 H1         73.5444   20.4951   30.7293 H         1 <0>         0.1150 
     40 H2         72.1434   24.5652   30.7335 H         1 <0>         0.1150 
     41 H3         74.1459   20.6965   33.0995 H         1 <0>         0.1150 
     42 H4         72.7809   24.7744   33.1185 H         1 <0>         0.1150 
     43 H5         75.2517   22.7461   29.2168 H         1 <0>         0.0600 
     44 H6         75.7412   21.5676   28.0189 H         1 <0>         0.0600 
     45 H7         75.1242   23.0166   26.1527 H         1 <0>         0.0600 
     46 H8         74.2200   24.0551   27.2101 H         1 <0>         0.0600 
     47 H9         73.7618   20.6504   28.5798 H         1 <0>         0.0600 
     48 H10        73.3459   21.5678   27.1848 H         1 <0>         0.0600 
     49 H11        75.9919   20.0636   35.8429 H         1 <0>         0.0600 
     50 H12        74.6305   20.6391   36.7442 H         1 <0>         0.0600 
     51 H13        75.7621   20.5732   38.8162 H         1 <0>         0.0600 
     52 H14        77.3457   20.6904   38.1098 H         1 <0>         0.0600 
     53 H15        72.5462   23.4283   28.6894 H         1 <0>         0.0600 
     54 H16        75.6352   22.8747   36.9112 H         1 <0>         0.0600 
     55 H17        77.2896   21.9645   28.0530 H         1 <0>         0.3537 
     56 H18        78.8676   22.4939   28.3854 H         1 <0>         0.3537 
     57 H19        80.2647   26.9582   28.2412 H         1 <0>         0.3600 
     58 H20        79.1395   28.1282   27.7920 H         1 <0>         0.3600 
     59 H21        77.1225   27.5667   26.8585 H         1 <0>         0.3000 
     60 H22        75.7971   21.9764   34.1084 H         1 <0>         0.3000 
     61 H23        70.9459   23.5232   27.7327 H         1 <0>         0.4286 
     62 H24        71.8415   20.4165   27.5265 H         1 <0>         0.4286 
@<TRIPOS>BOND
     1    1    3 ar   
     2    1   10 ar   
     3    1   39 1    
     4    2    4 ar   
     5    2   10 ar   
     6    2   40 1    
     7    3   11 ar   
     8    3   41 1    
     9    4   11 ar   
    10    4   42 1    
    11    5    6 1    
    12    5    7 1    
    13    5   43 1    
    14    5   44 1    
    15    6   12 1    
    16    6   45 1    
    17    6   46 1    
    18    7   16 1    
    19    7   47 1    
    20    7   48 1    
    21    8    9 1    
    22    8   17 1    
    23    8   49 1    
    24    8   50 1    
    25    9   18 1    
    26    9   51 1    
    27    9   52 1    
    28   10   16 1    
    29   11   19 1    
    30   12   13 ar   
    31   12   14 ar   
    32   13   23 1    
    33   13   26 ar   
    34   14   25 ar   
    35   14   32 2    
    36   15   24 1    
    37   15   25 ar   
    38   15   26 ar   
    39   16   21 1    
    40   16   53 1    
    41   17   20 1    
    42   17   27 1    
    43   17   54 1    
    44   18   30 1    
    45   18   33 2    
    46   19   27 am   BACKBONE|DICT|INTERRES
    47   19   34 2    
    48   20   31 1    
    49   20   35 2    
    50   21   22 1    
    51   21   28 1    
    52   21   29 1    
    53   22   36 1    
    54   22   37 1    
    55   22   38 1    
    56   23   55 1    
    57   23   56 1    
    58   24   57 1    
    59   24   58 1    
    60   25   59 1    
    61   27   60 1    
    62   28   61 1    
    63   29   62 1    
@<TRIPOS>SUBSTRUCTURE
     1 <0>         1 GROUP             0       ****    0 ROOT    
@<TRIPOS>MOLECULE
pur2-ligand
62   63    1
SMALL
USER_CHARGES


@<TRIPOS>ATOM
      1 C1         73.3780   21.4517   31.0721 C.ar      1 <0>        -0.1150 
      2 C2         72.2990   23.6189   30.8429 C.ar      1 <0>        -0.1150 
      3 C3         73.6254   21.7244   32.4267 C.ar      1 <0>        -0.1150 
      4 C4         72.5460   23.8915   32.2027 C.ar      1 <0>        -0.1150 
      5 C5         74.9357   22.1862   28.1288 C.3       1 <0>        -0.1200 
      6 C6         74.9969   23.4503   27.2496 C.3       1 <0>        -0.1200 
      7 C7         73.5946   21.4489   28.0704 C.3       1 <0>        -0.1200 
      8 C8         75.4156   22.5748   36.8465 C.3       1 <0>        -0.1200 
      9 C9         76.4461   21.9388   35.8827 C.3       1 <0>        -0.2200 
     10 C10        72.7106   22.3963   30.2691 C.ar      1 <0>        -0.1150 
     11 C11        73.2142   22.9426   33.0052 C.ar      1 <0>        -0.1150 
     12 C12        76.2518   24.3261   27.3764 C.ar      1 <0>        -0.0567 
     13 C13        77.4693   23.9226   27.8421 C.ar      1 <0>         0.1405 
     14 C14        76.1138   25.7293   26.9448 C.ar      1 <0>         0.5567 
     15 C15        78.3937   26.0478   27.6837 C.ar      1 <0>         0.5465 
     16 C16        72.3985   22.0704   28.8112 C.3       1 <0>         0.0550 
     17 C17        73.9680   22.0709   36.6354 C.3       1 <0>         0.0400 
     18 C18        77.8986   22.2992   36.1949 C.2       1 <0>         0.7000 
     19 C19        73.5615   23.2472   34.4311 C.2       1 <0>         0.6150 
     20 C20        72.9569   22.5473   37.6883 C.2       1 <0>         0.7000 
     21 C21        71.0769   21.2599   28.5729 C.3       1 <0>         0.5300 
     22 C22        70.0290   21.3701   29.7057 C.3       1 <0>         0.6171 
     23 N1         77.8096   22.6461   28.2427 N.pl3     1 <0>        -0.7254 
     24 N2         79.3459   27.0320   27.8428 N.pl3     1 <0>        -0.7850 
     25 N3         77.1945   26.5152   27.1534 N.pl3     1 <0>        -0.4225 
     26 N4         78.5460   24.7994   27.9835 N.2       1 <0>        -0.4815 
     27 N5         73.4800   22.1912   35.2588 N.am      1 <0>        -0.5000 
     28 O1         70.4699   21.7679   27.4039 O.3       1 <0>        -0.6936 
     29 O2         71.3626   19.8841   28.4069 O.3       1 <0>        -0.6936 
     30 O3         78.7861   21.8363   35.4427 O.co2     1 <0>        -0.8000 
     31 O4         72.4627   23.6884   37.5553 O.co2     1 <0>        -0.8000 
     32 O5         75.1175   26.1909   26.3851 O.2       1 <0>        -0.5000 
     33 O6         78.1460   23.0361   37.1741 O.co2     1 <0>        -0.8000 
     34 O7         73.8977   24.3825   34.7650 O.2       1 <0>        -0.5000 
     35 O8         72.7060   21.7561   38.6251 O.co2     1 <0>        -0.8000 
     36 F1         69.6398   22.6362   29.8427 F         1 <0>        -0.2057 
     37 F2         68.9521   20.6322   29.4288 F         1 <0>        -0.2057 
     38 F3         70.5460   20.9494   30.8581 F         1 <0>        -0.2057 
     39 H1         73.6964   20.5128   30.6464 H         1 <0>         0.1150 
     40 H2         71.7787   24.3502   30.2429 H         1 <0>         0.1150 
     41 H3         74.1459   20.9910   33.0203 H         1 <0>         0.1150 
     42 H4         72.2360   24.8379   32.6223 H         1 <0>         0.1150 
     43 H5         75.2021   22.4207   29.1596 H         1 <0>         0.0600 
     44 H6         75.6682   21.4682   27.7628 H         1 <0>         0.0600 
     45 H7         74.8794   23.1770   26.2007 H         1 <0>         0.0600 
     46 H8         74.1336   24.0689   27.4992 H         1 <0>         0.0600 
     47 H9         73.7469   20.4361   28.4291 H         1 <0>         0.0600 
     48 H10        73.3109   21.3399   27.0427 H         1 <0>         0.0600 
     49 H11        75.7034   22.3600   37.8769 H         1 <0>         0.0600 
     50 H12        75.4495   23.6610   36.7553 H         1 <0>         0.0600 
     51 H13        76.2411   22.2362   34.8547 H         1 <0>         0.0600 
     52 H14        76.3585   20.8529   35.9137 H         1 <0>         0.0600 
     53 H15        72.2371   23.0368   28.3490 H         1 <0>         0.0600 
     54 H16        74.0187   20.9911   36.7807 H         1 <0>         0.0600 
     55 H17        77.0874   21.9494   28.3531 H         1 <0>         0.3537 
     56 H18        78.6487   22.4469   28.7696 H         1 <0>         0.3537 
     57 H19        80.2624   26.8481   28.2430 H         1 <0>         0.3600 
     58 H20        79.1725   28.0198   27.7131 H         1 <0>         0.3600 
     59 H21        77.1453   27.4707   26.8247 H         1 <0>         0.3000 
     60 H22        73.1132   21.3416   34.8601 H         1 <0>         0.3000 
     61 H23        70.0449   21.0384   26.9694 H         1 <0>         0.4286 
     62 H24        72.1006   19.8106   27.8183 H         1 <0>         0.4286 
@<TRIPOS>BOND
     1    1    3 ar   
     2    1   10 ar   
     3    1   39 1    
     4    2    4 ar   
     5    2   10 ar   
     6    2   40 1    
     7    3   11 ar   
     8    3   41 1    
     9    4   11 ar   
    10    4   42 1    
    11    5    6 1    
    12    5    7 1    
    13    5   43 1    
    14    5   44 1    
    15    6   12 1    
    16    6   45 1    
    17    6   46 1    
    18    7   16 1    
    19    7   47 1    
    20    7   48 1    
    21    8    9 1    
    22    8   17 1    
    23    8   49 1    
    24    8   50 1    
    25    9   18 1    
    26    9   51 1    
    27    9   52 1    
    28   10   16 1    
    29   11   19 1    
    30   12   13 ar   
    31   12   14 ar   
    32   13   23 1    
    33   13   26 ar   
    34   14   25 ar   
    35   14   32 2    
    36   15   24 1    
    37   15   25 ar   
    38   15   26 ar   
    39   16   21 1    
    40   16   53 1    
    41   17   20 1    
    42   17   27 1    
    43   17   54 1    
    44   18   30 1    
    45   18   33 2    
    46   19   27 am   BACKBONE|DICT|INTERRES
    47   19   34 2    
    48   20   31 1    
    49   20   35 2    
    50   21   22 1    
    51   21   28 1    
    52   21   29 1    
    53   22   36 1    
    54   22   37 1    
    55   22   38 1    
    56   23   55 1    
    57   23   56 1    
    58   24   57 1    
    59   24   58 1    
    60   25   59 1    
    61   27   60 1    
    62   28   61 1    
    63   29   62 1    
@<TRIPOS>SUBSTRUCTURE
     1 <0>         1 GROUP             0       ****    0 ROOT    
@<TRIPOS>MOLECULE
pur2-ligand
62   63    1
SMALL
USER_CHARGES


@<TRIPOS>ATOM
      1 C1         73.3100   21.6198   31.1597 C.ar      1 <0>        -0.1150 
      2 C2         72.4894   23.8739   30.7748 C.ar      1 <0>        -0.1150 
      3 C3         73.3532   21.8807   32.5467 C.ar      1 <0>        -0.1150 
      4 C4         72.5123   24.1324   32.1501 C.ar      1 <0>        -0.1150 
      5 C5         75.1470   22.3172   28.1639 C.3       1 <0>        -0.1200 
      6 C6         75.2798   23.4118   27.0893 C.3       1 <0>        -0.1200 
      7 C7         73.7916   21.6094   28.0996 C.3       1 <0>        -0.1200 
      8 C8         75.7755   23.2830   36.8484 C.3       1 <0>        -0.1200 
      9 C9         76.4725   22.0621   36.2092 C.3       1 <0>        -0.2200 
     10 C10        72.8423   22.6118   30.2686 C.ar      1 <0>        -0.1150 
     11 C11        72.9290   23.1342   33.0450 C.ar      1 <0>        -0.1150 
     12 C12        76.4510   24.3741   27.2801 C.ar      1 <0>        -0.0567 
     13 C13        77.7122   24.0071   27.6293 C.ar      1 <0>         0.1405 
     14 C14        76.1927   25.8011   27.0425 C.ar      1 <0>         0.5567 
     15 C15        78.4678   26.1940   27.7488 C.ar      1 <0>         0.5465 
     16 C16        72.6248   22.3535   28.7817 C.3       1 <0>         0.0550 
     17 C17        74.2616   23.4198   36.5983 C.3       1 <0>         0.0400 
     18 C18        77.9769   22.2931   36.1551 C.2       1 <0>         0.7000 
     19 C19        72.8414   23.4091   34.5088 C.2       1 <0>         0.6150 
     20 C20        73.7406   24.7579   37.1579 C.2       1 <0>         0.7000 
     21 C21        71.1990   21.7897   28.4297 C.3       1 <0>         0.5300 
     22 C22        70.1395   21.7661   29.5687 C.3       1 <0>         0.6171 
     23 N1         78.1445   22.7182   27.8436 N.pl3     1 <0>        -0.7254 
     24 N2         79.3458   27.2131   28.0359 N.pl3     1 <0>        -0.7850 
     25 N3         77.2156   26.6358   27.3365 N.pl3     1 <0>        -0.4225 
     26 N4         78.7313   24.9329   27.8433 N.2       1 <0>        -0.4815 
     27 N5         73.9790   23.1899   35.1793 N.am      1 <0>        -0.5000 
     28 O1         70.6422   22.6364   27.4422 O.3       1 <0>        -0.6936 
     29 O2         71.3008   20.4547   27.9622 O.3       1 <0>        -0.6936 
     30 O3         78.5461   22.2364   35.0431 O.co2     1 <0>        -0.8000 
     31 O4         73.1080   24.7204   38.2364 O.co2     1 <0>        -0.8000 
     32 O5         75.1502   26.2359   26.5539 O.2       1 <0>        -0.5000 
     33 O6         78.5453   22.6338   37.2139 O.co2     1 <0>        -0.8000 
     34 O7         71.7919   23.8343   34.9939 O.2       1 <0>        -0.5000 
     35 O8         74.0231   25.7956   36.5168 O.co2     1 <0>        -0.8000 
     36 F1         69.8663   22.9960   29.9967 F         1 <0>        -0.2057 
     37 F2         68.9975   21.2385   29.1266 F         1 <0>        -0.2057 
     38 F3         70.5459   21.0361   30.5999 F         1 <0>        -0.2057 
     39 H1         73.5899   20.6435   30.7933 H         1 <0>         0.1150 
     40 H2         72.1457   24.6479   30.1070 H         1 <0>         0.1150 
     41 H3         73.6789   21.1033   33.2252 H         1 <0>         0.1150 
     42 H4         72.1893   25.0960   32.5166 H         1 <0>         0.1150 
     43 H5         75.3229   22.7287   29.1588 H         1 <0>         0.0600 
     44 H6         75.9044   21.5523   28.0047 H         1 <0>         0.0600 
     45 H7         75.3443   22.9789   26.0939 H         1 <0>         0.0600 
     46 H8         74.3521   23.9825   27.0837 H         1 <0>         0.0600 
     47 H9         73.8899   20.6343   28.5585 H         1 <0>         0.0600 
     48 H10        73.5658   21.4325   27.0503 H         1 <0>         0.0600 
     49 H11        75.9557   23.2709   37.9228 H         1 <0>         0.0600 
     50 H12        76.2558   24.1917   36.4836 H         1 <0>         0.0600 
     51 H13        76.1362   21.8800   35.1897 H         1 <0>         0.0600 
     52 H14        76.2586   21.1573   36.7755 H         1 <0>         0.0600 
     53 H15        72.6732   23.3545   28.3599 H         1 <0>         0.0600 
     54 H16        73.7537   22.6212   37.1419 H         1 <0>         0.0600 
     55 H17        77.4850   21.9586   27.9195 H         1 <0>         0.3537 
     56 H18        79.0744   22.5110   28.1747 H         1 <0>         0.3537 
     57 H19        80.2857   27.0382   28.3817 H         1 <0>         0.3600 
     58 H20        79.1036   28.1954   28.0588 H         1 <0>         0.3600 
     59 H21        77.0849   27.6188   27.1433 H         1 <0>         0.3000 
     60 H22        74.7613   22.8676   34.6323 H         1 <0>         0.3000 
     61 H23        70.9652   23.5423   27.5760 H         1 <0>         0.4286 
     62 H24        71.8999   20.4285   27.2300 H         1 <0>         0.4286 
@<TRIPOS>BOND
     1    1    3 ar   
     2    1   10 ar   
     3    1   39 1    
     4    2    4 ar   
     5    2   10 ar   
     6    2   40 1    
     7    3   11 ar   
     8    3   41 1    
     9    4   11 ar   
    10    4   42 1    
    11    5    6 1    
    12    5    7 1    
    13    5   43 1    
    14    5   44 1    
    15    6   12 1    
    16    6   45 1    
    17    6   46 1    
    18    7   16 1    
    19    7   47 1    
    20    7   48 1    
    21    8    9 1    
    22    8   17 1    
    23    8   49 1    
    24    8   50 1    
    25    9   18 1    
    26    9   51 1    
    27    9   52 1    
    28   10   16 1    
    29   11   19 1    
    30   12   13 ar   
    31   12   14 ar   
    32   13   23 1    
    33   13   26 ar   
    34   14   25 ar   
    35   14   32 2    
    36   15   24 1    
    37   15   25 ar   
    38   15   26 ar   
    39   16   21 1    
    40   16   53 1    
    41   17   20 1    
    42   17   27 1    
    43   17   54 1    
    44   18   30 1    
    45   18   33 2    
    46   19   27 am   BACKBONE|DICT|INTERRES
    47   19   34 2    
    48   20   31 1    
    49   20   35 2    
    50   21   22 1    
    51   21   28 1    
    52   21   29 1    
    53   22   36 1    
    54   22   37 1    
    55   22   38 1    
    56   23   55 1    
    57   23   56 1    
    58   24   57 1    
    59   24   58 1    
    60   25   59 1    
    61   27   60 1    
    62   28   61 1    
    63   29   62 1    
@<TRIPOS>SUBSTRUCTURE
     1 <0>         1 GROUP             0       ****    0 ROOT    
@<TRIPOS>MOLECULE
pur2-ligand
62   63    1
SMALL
USER_CHARGES


@<TRIPOS>ATOM
      1 C1         73.3076   21.7950   31.7695 C.ar      1 <0>        -0.1150 
      2 C2         72.4763   24.0688   31.9779 C.ar      1 <0>        -0.1150 
      3 C3         73.7398   21.8367   33.1030 C.ar      1 <0>        -0.1150 
      4 C4         72.9460   24.1210   33.3091 C.ar      1 <0>        -0.1150 
      5 C5         74.3473   23.5035   28.5947 C.3       1 <0>        -0.1200 
      6 C6         75.0812   23.4068   27.2526 C.3       1 <0>        -0.1200 
      7 C7         73.2625   22.4397   28.7413 C.3       1 <0>        -0.1200 
      8 C8         75.8496   21.0284   37.3281 C.3       1 <0>        -0.1200 
      9 C9         75.9662   19.7358   36.4930 C.3       1 <0>        -0.2200 
     10 C10        72.6755   22.9134   31.1906 C.ar      1 <0>        -0.1150 
     11 C11        73.6336   23.0177   33.8637 C.ar      1 <0>        -0.1150 
     12 C12        76.2833   24.3250   27.2792 C.ar      1 <0>        -0.0567 
     13 C13        77.4739   23.9137   27.7768 C.ar      1 <0>         0.1405 
     14 C14        76.1362   25.7236   26.8416 C.ar      1 <0>         0.5567 
     15 C15        78.4017   26.0338   27.6379 C.ar      1 <0>         0.5465 
     16 C16        72.1638   22.8448   29.7492 C.3       1 <0>         0.0550 
     17 C17        76.2507   22.3094   36.5557 C.3       1 <0>         0.0400 
     18 C18        76.1661   18.4767   37.3263 C.2       1 <0>         0.7000 
     19 C19        74.2431   23.0843   35.2369 C.2       1 <0>         0.6150 
     20 C20        77.7555   22.4016   36.2230 C.2       1 <0>         0.7000 
     21 C21        70.8157   22.0649   29.6367 C.3       1 <0>         0.5300 
     22 C22        70.5410   21.3495   28.2853 C.3       1 <0>         0.6171 
     23 N1         77.7275   22.6366   28.2427 N.pl3     1 <0>        -0.7254 
     24 N2         79.3458   27.0163   27.8426 N.pl3     1 <0>        -0.7850 
     25 N3         77.2189   26.5046   27.0642 N.pl3     1 <0>        -0.4225 
     26 N4         78.5460   24.7843   27.9430 N.2       1 <0>        -0.4815 
     27 N5         75.4258   22.4548   35.3558 N.am      1 <0>        -0.5000 
     28 O1         70.7581   21.0422   30.6093 O.3       1 <0>        -0.6936 
     29 O2         69.8030   23.0362   29.8428 O.3       1 <0>        -0.6936 
     30 O3         75.1555   17.9297   37.8153 O.co2     1 <0>        -0.8000 
     31 O4         78.1461   22.2363   35.0428 O.co2     1 <0>        -0.8000 
     32 O5         75.1376   26.1853   26.2862 O.2       1 <0>        -0.5000 
     33 O6         77.3459   18.0746   37.4427 O.co2     1 <0>        -0.8000 
     34 O7         73.7057   23.7177   36.1443 O.2       1 <0>        -0.5000 
     35 O8         78.5443   22.6363   37.1675 O.co2     1 <0>        -0.8000 
     36 F1         70.5459   22.2360   27.2934 F         1 <0>        -0.2057 
     37 F2         71.4412   20.4000   28.0221 F         1 <0>        -0.2057 
     38 F3         69.3460   20.7690   28.3083 F         1 <0>        -0.2057 
     39 H1         73.4338   20.8835   31.2029 H         1 <0>         0.1150 
     40 H2         71.9758   24.9288   31.5555 H         1 <0>         0.1150 
     41 H3         74.1459   20.9434   33.5431 H         1 <0>         0.1150 
     42 H4         72.8194   25.0263   33.8855 H         1 <0>         0.1150 
     43 H5         73.9068   24.4998   28.6434 H         1 <0>         0.0600 
     44 H6         75.0412   23.4267   29.4326 H         1 <0>         0.0600 
     45 H7         75.3979   22.3808   27.0636 H         1 <0>         0.0600 
     46 H8         74.4175   23.6710   26.4284 H         1 <0>         0.0600 
     47 H9         73.6986   21.4684   28.9762 H         1 <0>         0.0600 
     48 H10        72.8345   22.3434   27.7498 H         1 <0>         0.0600 
     49 H11        74.8267   21.1249   37.6944 H         1 <0>         0.0600 
     50 H12        76.4743   20.9514   38.2194 H         1 <0>         0.0600 
     51 H13        76.8339   19.8058   35.8427 H         1 <0>         0.0600 
     52 H14        75.0984   19.6162   35.8438 H         1 <0>         0.0600 
     53 H15        71.9384   23.8675   29.4601 H         1 <0>         0.0600 
     54 H16        76.0483   23.1616   37.2066 H         1 <0>         0.0600 
     55 H17        76.9765   21.9656   28.3199 H         1 <0>         0.3537 
     56 H18        78.5459   22.4022   28.7886 H         1 <0>         0.3537 
     57 H19        80.2520   26.8287   28.2643 H         1 <0>         0.3600 
     58 H20        79.1805   28.0047   27.7080 H         1 <0>         0.3600 
     59 H21        77.1820   27.4616   26.7368 H         1 <0>         0.3000 
     60 H22        75.7984   21.9943   34.5348 H         1 <0>         0.3000 
     61 H23        71.2381   21.3498   31.3646 H         1 <0>         0.4286 
     62 H24        70.1451   23.9065   29.6228 H         1 <0>         0.4286 
@<TRIPOS>BOND
     1    1    3 ar   
     2    1   10 ar   
     3    1   39 1    
     4    2    4 ar   
     5    2   10 ar   
     6    2   40 1    
     7    3   11 ar   
     8    3   41 1    
     9    4   11 ar   
    10    4   42 1    
    11    5    6 1    
    12    5    7 1    
    13    5   43 1    
    14    5   44 1    
    15    6   12 1    
    16    6   45 1    
    17    6   46 1    
    18    7   16 1    
    19    7   47 1    
    20    7   48 1    
    21    8    9 1    
    22    8   17 1    
    23    8   49 1    
    24    8   50 1    
    25    9   18 1    
    26    9   51 1    
    27    9   52 1    
    28   10   16 1    
    29   11   19 1    
    30   12   13 ar   
    31   12   14 ar   
    32   13   23 1    
    33   13   26 ar   
    34   14   25 ar   
    35   14   32 2    
    36   15   24 1    
    37   15   25 ar   
    38   15   26 ar   
    39   16   21 1    
    40   16   53 1    
    41   17   20 1    
    42   17   27 1    
    43   17   54 1    
    44   18   30 1    
    45   18   33 2    
    46   19   27 am   BACKBONE|DICT|INTERRES
    47   19   34 2    
    48   20   31 1    
    49   20   35 2    
    50   21   22 1    
    51   21   28 1    
    52   21   29 1    
    53   22   36 1    
    54   22   37 1    
    55   22   38 1    
    56   23   55 1    
    57   23   56 1    
    58   24   57 1    
    59   24   58 1    
    60   25   59 1    
    61   27   60 1    
    62   28   61 1    
    63   29   62 1    
@<TRIPOS>SUBSTRUCTURE
     1 <0>         1 GROUP             0       ****    0 ROOT    
@<TRIPOS>MOLECULE
pur2-ligand
62   63    1
SMALL
USER_CHARGES


@<TRIPOS>ATOM
      1 C1         73.3102   21.4365   31.0914 C.ar      1 <0>        -0.1150 
      2 C2         72.3285   23.6529   30.8760 C.ar      1 <0>        -0.1150 
      3 C3         73.5239   21.6666   32.4603 C.ar      1 <0>        -0.1150 
      4 C4         72.5462   23.8865   32.2486 C.ar      1 <0>        -0.1150 
      5 C5         74.9961   22.4490   28.2406 C.3       1 <0>        -0.1200 
      6 C6         75.2027   23.4187   27.0680 C.3       1 <0>        -0.1200 
      7 C7         73.7214   21.6110   28.0941 C.3       1 <0>        -0.1200 
      8 C8         76.1570   24.2975   36.1859 C.3       1 <0>        -0.1200 
      9 C9         76.4592   22.7888   36.0531 C.3       1 <0>        -0.2200 
     10 C10        72.7120   22.4277   30.2885 C.ar      1 <0>        -0.1150 
     11 C11        73.1712   22.8986   33.0419 C.ar      1 <0>        -0.1150 
     12 C12        76.3763   24.3811   27.2463 C.ar      1 <0>        -0.0567 
     13 C13        77.6279   24.0057   27.6266 C.ar      1 <0>         0.1405 
     14 C14        76.1459   25.8015   26.9416 C.ar      1 <0>         0.5567 
     15 C15        78.4301   26.1777   27.6536 C.ar      1 <0>         0.5465 
     16 C16        72.4616   22.1551   28.8063 C.3       1 <0>         0.0550 
     17 C17        74.6727   24.7086   36.0262 C.3       1 <0>         0.0400 
     18 C18        77.9575   22.5113   36.1137 C.2       1 <0>         0.7000 
     19 C19        73.4812   23.1328   34.4863 C.2       1 <0>         0.6150 
     20 C20        74.4696   26.2211   36.1670 C.2       1 <0>         0.7000 
     21 C21        71.1655   21.3199   28.5126 C.3       1 <0>         0.5300 
     22 C22        70.0821   21.3685   29.6238 C.3       1 <0>         0.6171 
     23 N1         78.0539   22.7156   27.8506 N.pl3     1 <0>        -0.7254 
     24 N2         79.3441   27.1823   27.8800 N.pl3     1 <0>        -0.7850 
     25 N3         77.1934   26.6251   27.1883 N.pl3     1 <0>        -0.4225 
     26 N4         78.6544   24.9204   27.8426 N.2       1 <0>        -0.4815 
     27 N5         74.1215   24.2806   34.7427 N.am      1 <0>        -0.5000 
     28 O1         70.5460   21.8356   27.3510 O.3       1 <0>        -0.6936 
     29 O2         71.5129   19.9616   28.3169 O.3       1 <0>        -0.6936 
     30 O3         78.5417   22.6363   37.2139 O.co2     1 <0>        -0.8000 
     31 O4         74.5702   26.9107   35.1258 O.co2     1 <0>        -0.8000 
     32 O5         75.1142   26.2357   26.4297 O.2       1 <0>        -0.5000 
     33 O6         78.5460   22.2363   35.0448 O.co2     1 <0>        -0.8000 
     34 O7         73.2360   22.2740   35.3331 O.2       1 <0>        -0.5000 
     35 O8         74.2267   26.6611   37.3111 O.co2     1 <0>        -0.8000 
     36 F1         69.6901   22.6230   29.8427 F         1 <0>        -0.2057 
     37 F2         69.0127   20.6558   29.2639 F         1 <0>        -0.2057 
     38 F3         70.5458   20.8732   30.7665 F         1 <0>        -0.2057 
     39 H1         73.5934   20.4908   30.6550 H         1 <0>         0.1150 
     40 H2         71.8616   24.4182   30.2729 H         1 <0>         0.1150 
     41 H3         73.9869   20.9013   33.0638 H         1 <0>         0.1150 
     42 H4         72.2580   24.8343   32.6799 H         1 <0>         0.1150 
     43 H5         75.0178   22.9900   29.1865 H         1 <0>         0.0600 
     44 H6         75.8158   21.7374   28.2874 H         1 <0>         0.0600 
     45 H7         75.3440   22.8732   26.1393 H         1 <0>         0.0600 
     46 H8         74.2735   23.9761   26.9423 H         1 <0>         0.0600 
     47 H9         73.9536   20.6363   28.4991 H         1 <0>         0.0600 
     48 H10        73.5217   21.4368   27.0427 H         1 <0>         0.0600 
     49 H11        76.5059   24.6383   37.1623 H         1 <0>         0.0600 
     50 H12        76.7545   24.8487   35.4586 H         1 <0>         0.0600 
     51 H13        76.0930   22.3975   35.1043 H         1 <0>         0.0600 
     52 H14        75.9552   22.2284   36.8405 H         1 <0>         0.0600 
     53 H15        72.2964   23.1375   28.3812 H         1 <0>         0.0600 
     54 H16        74.0986   24.2384   36.8269 H         1 <0>         0.0600 
     55 H17        77.3822   21.9641   27.9096 H         1 <0>         0.3537 
     56 H18        78.9407   22.5187   28.2896 H         1 <0>         0.3537 
     57 H19        80.2706   27.0027   28.2565 H         1 <0>         0.3600 
     58 H20        79.1274   28.1701   27.8447 H         1 <0>         0.3600 
     59 H21        77.0940   27.5962   26.9243 H         1 <0>         0.3000 
     60 H22        74.2553   24.9437   33.9920 H         1 <0>         0.3000 
     61 H23        70.1260   21.1051   26.9135 H         1 <0>         0.4286 
     62 H24        72.2756   19.9310   27.7569 H         1 <0>         0.4286 
@<TRIPOS>BOND
     1    1    3 ar   
     2    1   10 ar   
     3    1   39 1    
     4    2    4 ar   
     5    2   10 ar   
     6    2   40 1    
     7    3   11 ar   
     8    3   41 1    
     9    4   11 ar   
    10    4   42 1    
    11    5    6 1    
    12    5    7 1    
    13    5   43 1    
    14    5   44 1    
    15    6   12 1    
    16    6   45 1    
    17    6   46 1    
    18    7   16 1    
    19    7   47 1    
    20    7   48 1    
    21    8    9 1    
    22    8   17 1    
    23    8   49 1    
    24    8   50 1    
    25    9   18 1    
    26    9   51 1    
    27    9   52 1    
    28   10   16 1    
    29   11   19 1    
    30   12   13 ar   
    31   12   14 ar   
    32   13   23 1    
    33   13   26 ar   
    34   14   25 ar   
    35   14   32 2    
    36   15   24 1    
    37   15   25 ar   
    38   15   26 ar   
    39   16   21 1    
    40   16   53 1    
    41   17   20 1    
    42   17   27 1    
    43   17   54 1    
    44   18   30 1    
    45   18   33 2    
    46   19   27 am   BACKBONE|DICT|INTERRES
    47   19   34 2    
    48   20   31 1    
    49   20   35 2    
    50   21   22 1    
    51   21   28 1    
    52   21   29 1    
    53   22   36 1    
    54   22   37 1    
    55   22   38 1    
    56   23   55 1    
    57   23   56 1    
    58   24   57 1    
    59   24   58 1    
    60   25   59 1    
    61   27   60 1    
    62   28   61 1    
    63   29   62 1    
@<TRIPOS>SUBSTRUCTURE
     1 <0>         1 GROUP             0       ****    0 ROOT    
@<TRIPOS>MOLECULE
pur2-ligand
62   63    1
SMALL
USER_CHARGES


@<TRIPOS>ATOM
      1 C1         72.1457   23.6664   30.8545 C.ar      1 <0>        -0.1150 
      2 C2         73.0591   21.4369   31.1682 C.ar      1 <0>        -0.1150 
      3 C3         72.3649   23.9546   32.2069 C.ar      1 <0>        -0.1150 
      4 C4         73.2908   21.7278   32.5312 C.ar      1 <0>        -0.1150 
      5 C5         74.3669   23.2557   28.1640 C.3       1 <0>        -0.1200 
      6 C6         75.1199   23.5319   26.8633 C.3       1 <0>        -0.1200 
      7 C7         73.5207   21.9795   28.0809 C.3       1 <0>        -0.1200 
      8 C8         75.6449   22.3972   36.9455 C.3       1 <0>        -0.1200 
      9 C9         76.7211   22.5101   35.8436 C.3       1 <0>        -0.2200 
     10 C10        72.4491   22.3950   30.3280 C.ar      1 <0>        -0.1150 
     11 C11        72.9014   22.9799   33.0638 C.ar      1 <0>        -0.1150 
     12 C12        76.2942   24.4510   27.0973 C.ar      1 <0>        -0.0567 
     13 C13        77.4768   24.0076   27.5913 C.ar      1 <0>         0.1405 
     14 C14        76.1460   25.8716   26.7733 C.ar      1 <0>         0.5567 
     15 C15        78.4022   26.1267   27.6161 C.ar      1 <0>         0.5465 
     16 C16        72.1965   22.1178   28.8461 C.3       1 <0>         0.0550 
     17 C17        74.3411   23.1435   36.5869 C.3       1 <0>         0.0400 
     18 C18        78.1458   22.2694   36.2995 C.2       1 <0>         0.7000 
     19 C19        72.9218   23.2606   34.5338 C.2       1 <0>         0.6150 
     20 C20        74.4940   24.6548   36.8686 C.2       1 <0>         0.7000 
     21 C21        71.1070   21.0656   28.4710 C.3       1 <0>         0.5300 
     22 C22        69.8887   21.0227   29.4265 C.3       1 <0>         0.6171 
     23 N1         77.7412   22.6984   27.9381 N.pl3     1 <0>        -0.7254 
     24 N2         79.3459   27.0904   27.8830 N.pl3     1 <0>        -0.7850 
     25 N3         77.2239   26.6359   27.0653 N.pl3     1 <0>        -0.4225 
     26 N4         78.5462   24.8615   27.8442 N.2       1 <0>        -0.4815 
     27 N5         74.0163   22.8591   35.1864 N.am      1 <0>        -0.5000 
     28 O1         70.5648   21.4363   27.2142 O.3       1 <0>        -0.6936 
     29 O2         71.7103   19.7906   28.4019 O.3       1 <0>        -0.6936 
     30 O3         78.5000   22.6362   37.4429 O.co2     1 <0>        -0.8000 
     31 O4         74.9888   25.3763   35.9719 O.co2     1 <0>        -0.8000 
     32 O5         75.1506   26.3616   26.2427 O.2       1 <0>        -0.5000 
     33 O6         78.9457   21.8363   35.4425 O.co2     1 <0>        -0.8000 
     34 O7         71.9805   23.8548   35.0610 O.2       1 <0>        -0.5000 
     35 O8         74.1349   25.0542   37.9975 O.co2     1 <0>        -0.8000 
     36 F1         69.3458   22.2359   29.5231 F         1 <0>        -0.2057 
     37 F2         68.9672   20.1734   28.9711 F         1 <0>        -0.2057 
     38 F3         70.2335   20.6364   30.6426 F         1 <0>        -0.2057 
     39 H1         71.7459   24.4445   30.2280 H         1 <0>         0.1150 
     40 H2         73.3348   20.4726   30.7672 H         1 <0>         0.1150 
     41 H3         72.1085   24.9307   32.5915 H         1 <0>         0.1150 
     42 H4         73.7104   20.9660   33.1725 H         1 <0>         0.1150 
     43 H5         73.7471   24.1284   28.3756 H         1 <0>         0.0600 
     44 H6         75.0516   23.1665   29.0088 H         1 <0>         0.0600 
     45 H7         75.5088   22.6171   26.4448 H         1 <0>         0.0600 
     46 H8         74.4409   23.9270   26.1067 H         1 <0>         0.0600 
     47 H9         74.1014   21.1320   28.4472 H         1 <0>         0.0600 
     48 H10        73.3130   21.7562   27.0428 H         1 <0>         0.0600 
     49 H11        75.4213   21.3417   37.1037 H         1 <0>         0.0600 
     50 H12        76.0147   22.7644   37.9051 H         1 <0>         0.0600 
     51 H13        76.7225   23.5215   35.4433 H         1 <0>         0.0600 
     52 H14        76.4949   21.8389   35.0157 H         1 <0>         0.0600 
     53 H15        71.7493   23.0363   28.4840 H         1 <0>         0.0600 
     54 H16        73.5308   22.7696   37.2152 H         1 <0>         0.0600 
     55 H17        76.9861   22.0286   27.9763 H         1 <0>         0.3537 
     56 H18        78.5464   22.4479   28.4935 H         1 <0>         0.3537 
     57 H19        80.2506   26.8763   28.2954 H         1 <0>         0.3600 
     58 H20        79.1797   28.0860   27.8176 H         1 <0>         0.3600 
     59 H21        77.1937   27.6096   26.7909 H         1 <0>         0.3000 
     60 H22        74.7445   22.4205   34.6445 H         1 <0>         0.3000 
     61 H23        70.1458   20.6727   26.8331 H         1 <0>         0.4286 
     62 H24        72.5355   19.8806   27.9474 H         1 <0>         0.4286 
@<TRIPOS>BOND
     1    1    3 ar   
     2    1   10 ar   
     3    1   39 1    
     4    2    4 ar   
     5    2   10 ar   
     6    2   40 1    
     7    3   11 ar   
     8    3   41 1    
     9    4   11 ar   
    10    4   42 1    
    11    5    6 1    
    12    5    7 1    
    13    5   43 1    
    14    5   44 1    
    15    6   12 1    
    16    6   45 1    
    17    6   46 1    
    18    7   16 1    
    19    7   47 1    
    20    7   48 1    
    21    8    9 1    
    22    8   17 1    
    23    8   49 1    
    24    8   50 1    
    25    9   18 1    
    26    9   51 1    
    27    9   52 1    
    28   10   16 1    
    29   11   19 1    
    30   12   13 ar   
    31   12   14 ar   
    32   13   23 1    
    33   13   26 ar   
    34   14   25 ar   
    35   14   32 2    
    36   15   24 1    
    37   15   25 ar   
    38   15   26 ar   
    39   16   21 1    
    40   16   53 1    
    41   17   20 1    
    42   17   27 1    
    43   17   54 1    
    44   18   30 1    
    45   18   33 2    
    46   19   27 am   BACKBONE|DICT|INTERRES
    47   19   34 2    
    48   20   31 1    
    49   20   35 2    
    50   21   22 1    
    51   21   28 1    
    52   21   29 1    
    53   22   36 1    
    54   22   37 1    
    55   22   38 1    
    56   23   55 1    
    57   23   56 1    
    58   24   57 1    
    59   24   58 1    
    60   25   59 1    
    61   27   60 1    
    62   28   61 1    
    63   29   62 1    
@<TRIPOS>SUBSTRUCTURE
     1 <0>         1 GROUP             0       ****    0 ROOT    
@<TRIPOS>MOLECULE
pur2-ligand
62   63    1
SMALL
USER_CHARGES


@<TRIPOS>ATOM
      1 C1         73.3902   21.4363   31.2262 C.ar      1 <0>        -0.1150 
      2 C2         72.5835   23.7177   31.2366 C.ar      1 <0>        -0.1150 
      3 C3         73.7459   21.5552   32.5820 C.ar      1 <0>        -0.1150 
      4 C4         72.9460   23.8363   32.6013 C.ar      1 <0>        -0.1150 
      5 C5         74.9729   22.3235   28.1936 C.3       1 <0>        -0.1200 
      6 C6         75.0648   23.4829   27.1848 C.3       1 <0>        -0.1200 
      7 C7         73.6065   21.6566   28.2069 C.3       1 <0>        -0.1200 
      8 C8         75.7104   20.7424   36.6480 C.3       1 <0>        -0.1200 
      9 C9         76.3613   20.2522   37.9629 C.3       1 <0>        -0.2200 
     10 C10        72.8365   22.5212   30.5226 C.ar      1 <0>        -0.1150 
     11 C11        73.5976   22.7748   33.2707 C.ar      1 <0>        -0.1150 
     12 C12        76.2864   24.3903   27.3316 C.ar      1 <0>        -0.0567 
     13 C13        77.4922   24.0034   27.8345 C.ar      1 <0>         0.1405 
     14 C14        76.1374   25.7896   26.8894 C.ar      1 <0>         0.5567 
     15 C15        78.3954   26.1319   27.6799 C.ar      1 <0>         0.5465 
     16 C16        72.5116   22.3871   29.0226 C.3       1 <0>         0.0550 
     17 C17        76.0452   22.1823   36.1725 C.3       1 <0>         0.0400 
     18 C18        76.5458   18.7311   37.9960 C.2       1 <0>         0.7000 
     19 C19        74.1191   22.9267   34.6805 C.2       1 <0>         0.6150 
     20 C20        77.5615   22.5153   36.0897 C.2       1 <0>         0.7000 
     21 C21        71.0937   21.8141   28.6719 C.3       1 <0>         0.5300 
     22 C22        70.0868   21.7914   29.8324 C.3       1 <0>         0.6171 
     23 N1         77.8436   22.7328   28.2427 N.pl3     1 <0>        -0.7254 
     24 N2         79.3459   27.1119   27.8452 N.pl3     1 <0>        -0.7850 
     25 N3         77.2073   26.5868   27.1133 N.pl3     1 <0>        -0.4225 
     26 N4         78.5460   24.8921   28.0059 N.2       1 <0>        -0.4815 
     27 N5         75.3460   22.4106   34.8982 N.am      1 <0>        -0.5000 
     28 O1         70.5478   22.6363   27.6561 O.3       1 <0>        -0.6936 
     29 O2         71.1798   20.4695   28.2340 O.3       1 <0>        -0.6936 
     30 O3         77.3459   18.2363   37.1683 O.co2     1 <0>        -0.8000 
     31 O4         78.1242   23.0363   37.0809 O.co2     1 <0>        -0.8000 
     32 O5         75.1463   26.2363   26.3082 O.2       1 <0>        -0.5000 
     33 O6         75.9311   18.0902   38.8742 O.co2     1 <0>        -0.8000 
     34 O7         73.4595   23.5098   35.5393 O.2       1 <0>        -0.5000 
     35 O8         78.1884   22.2363   35.0427 O.co2     1 <0>        -0.8000 
     36 F1         69.8669   23.0359   30.2427 F         1 <0>        -0.2057 
     37 F2         68.9307   21.2721   29.4250 F         1 <0>        -0.2057 
     38 F3         70.5460   21.0366   30.8297 F         1 <0>        -0.2057 
     39 H1         73.5442   20.4961   30.7211 H         1 <0>         0.1150 
     40 H2         72.1327   24.5616   30.7318 H         1 <0>         0.1150 
     41 H3         74.1459   20.6957   33.0919 H         1 <0>         0.1150 
     42 H4         72.7802   24.7731   33.1135 H         1 <0>         0.1150 
     43 H5         75.2424   22.6518   29.1983 H         1 <0>         0.0600 
     44 H6         75.6764   21.5437   27.9052 H         1 <0>         0.0600 
     45 H7         75.0360   23.0970   26.1655 H         1 <0>         0.0600 
     46 H8         74.1714   24.0985   27.2954 H         1 <0>         0.0600 
     47 H9         73.7248   20.6363   28.5678 H         1 <0>         0.0600 
     48 H10        73.2861   21.5452   27.1748 H         1 <0>         0.0600 
     49 H11        75.9887   20.0622   35.8428 H         1 <0>         0.0600 
     50 H12        74.6288   20.6393   36.7449 H         1 <0>         0.0600 
     51 H13        75.7633   20.5750   38.8157 H         1 <0>         0.0600 
     52 H14        77.3459   20.6904   38.1068 H         1 <0>         0.0600 
     53 H15        72.5335   23.4238   28.6881 H         1 <0>         0.0600 
     54 H16        75.6324   22.8744   36.9083 H         1 <0>         0.0600 
     55 H17        77.1394   22.0130   28.3160 H         1 <0>         0.3537 
     56 H18        78.6879   22.5332   28.7597 H         1 <0>         0.3537 
     57 H19        80.2552   26.9288   28.2612 H         1 <0>         0.3600 
     58 H20        79.1743   28.0997   27.7132 H         1 <0>         0.3600 
     59 H21        77.1633   27.5376   26.7691 H         1 <0>         0.3000 
     60 H22        75.7979   21.9735   34.1056 H         1 <0>         0.3000 
     61 H23        70.9459   23.5184   27.7298 H         1 <0>         0.4286 
     62 H24        70.3049   20.1672   28.0440 H         1 <0>         0.4286 
@<TRIPOS>BOND
     1    1    3 ar   
     2    1   10 ar   
     3    1   39 1    
     4    2    4 ar   
     5    2   10 ar   
     6    2   40 1    
     7    3   11 ar   
     8    3   41 1    
     9    4   11 ar   
    10    4   42 1    
    11    5    6 1    
    12    5    7 1    
    13    5   43 1    
    14    5   44 1    
    15    6   12 1    
    16    6   45 1    
    17    6   46 1    
    18    7   16 1    
    19    7   47 1    
    20    7   48 1    
    21    8    9 1    
    22    8   17 1    
    23    8   49 1    
    24    8   50 1    
    25    9   18 1    
    26    9   51 1    
    27    9   52 1    
    28   10   16 1    
    29   11   19 1    
    30   12   13 ar   
    31   12   14 ar   
    32   13   23 1    
    33   13   26 ar   
    34   14   25 ar   
    35   14   32 2    
    36   15   24 1    
    37   15   25 ar   
    38   15   26 ar   
    39   16   21 1    
    40   16   53 1    
    41   17   20 1    
    42   17   27 1    
    43   17   54 1    
    44   18   30 1    
    45   18   33 2    
    46   19   27 am   BACKBONE|DICT|INTERRES
    47   19   34 2    
    48   20   31 1    
    49   20   35 2    
    50   21   22 1    
    51   21   28 1    
    52   21   29 1    
    53   22   36 1    
    54   22   37 1    
    55   22   38 1    
    56   23   55 1    
    57   23   56 1    
    58   24   57 1    
    59   24   58 1    
    60   25   59 1    
    61   27   60 1    
    62   28   61 1    
    63   29   62 1    
@<TRIPOS>SUBSTRUCTURE
     1 <0>         1 GROUP             0       ****    0 ROOT    
@<TRIPOS>MOLECULE
pur2-ligand
62   63    1
SMALL
USER_CHARGES


@<TRIPOS>ATOM
      1 C1         73.2969   21.7770   31.8033 C.ar      1 <0>        -0.1150 
      2 C2         72.4757   24.0575   31.9813 C.ar      1 <0>        -0.1150 
      3 C3         73.7344   21.8363   33.1335 C.ar      1 <0>        -0.1150 
      4 C4         72.9459   24.1250   33.3121 C.ar      1 <0>        -0.1150 
      5 C5         74.4953   23.2558   28.7444 C.3       1 <0>        -0.1200 
      6 C6         75.0696   23.4000   27.3270 C.3       1 <0>        -0.1200 
      7 C7         73.2814   22.3303   28.7877 C.3       1 <0>        -0.1200 
      8 C8         75.8544   21.0308   37.3284 C.3       1 <0>        -0.1200 
      9 C9         75.9789   19.7392   36.4920 C.3       1 <0>        -0.2200 
     10 C10        72.6726   22.8914   31.2089 C.ar      1 <0>        -0.1150 
     11 C11        73.6324   23.0268   33.8787 C.ar      1 <0>        -0.1150 
     12 C12        76.2678   24.3285   27.3454 C.ar      1 <0>        -0.0567 
     13 C13        77.4719   23.9186   27.8092 C.ar      1 <0>         0.1405 
     14 C14        76.1139   25.7277   26.9131 C.ar      1 <0>         0.5567 
     15 C15        78.3952   26.0394   27.6622 C.ar      1 <0>         0.5465 
     16 C16        72.1817   22.8111   29.7605 C.3       1 <0>         0.0550 
     17 C17        76.2547   22.3146   36.5607 C.3       1 <0>         0.0400 
     18 C18        76.1695   18.4801   37.3273 C.2       1 <0>         0.7000 
     19 C19        74.2496   23.1059   35.2474 C.2       1 <0>         0.6150 
     20 C20        77.7579   22.4036   36.2238 C.2       1 <0>         0.7000 
     21 C21        70.8201   22.0580   29.6391 C.3       1 <0>         0.5300 
     22 C22        70.5416   21.3466   28.2853 C.3       1 <0>         0.6171 
     23 N1         77.7447   22.6363   28.2427 N.pl3     1 <0>        -0.7254 
     24 N2         79.3459   27.0205   27.8427 N.pl3     1 <0>        -0.7850 
     25 N3         77.1984   26.5109   27.1208 N.pl3     1 <0>        -0.4225 
     26 N4         78.5460   24.7891   27.9589 N.2       1 <0>        -0.4815 
     27 N5         75.4271   22.4663   35.3645 N.am      1 <0>        -0.5000 
     28 O1         70.7487   21.0363   30.6100 O.3       1 <0>        -0.6936 
     29 O2         69.8140   23.0363   29.8427 O.3       1 <0>        -0.6936 
     30 O3         77.3459   18.0682   37.4427 O.co2     1 <0>        -0.8000 
     31 O4         78.5459   22.6363   37.1688 O.co2     1 <0>        -0.8000 
     32 O5         75.1087   26.1885   26.3693 O.2       1 <0>        -0.5000 
     33 O6         75.1549   17.9419   37.8179 O.co2     1 <0>        -0.8000 
     34 O7         73.7226   23.7534   36.1510 O.2       1 <0>        -0.5000 
     35 O8         78.1460   22.2363   35.0427 O.co2     1 <0>        -0.8000 
     36 F1         71.4298   20.3893   28.0124 F         1 <0>        -0.2057 
     37 F2         69.3459   20.7718   28.3111 F         1 <0>        -0.2057 
     38 F3         70.5460   22.2363   27.2966 F         1 <0>        -0.2057 
     39 H1         73.4216   20.8584   31.2486 H         1 <0>         0.1150 
     40 H2         71.9814   24.9145   31.5459 H         1 <0>         0.1150 
     41 H3         74.1459   20.9494   33.5821 H         1 <0>         0.1150 
     42 H4         72.8240   25.0382   33.8770 H         1 <0>         0.1150 
     43 H5         74.2149   24.2453   29.0967 H         1 <0>         0.0600 
     44 H6         75.2500   22.8942   29.4427 H         1 <0>         0.0600 
     45 H7         75.3660   22.4243   26.9410 H         1 <0>         0.0600 
     46 H8         74.3071   23.7753   26.6428 H         1 <0>         0.0600 
     47 H9         73.5970   21.3081   28.9993 H         1 <0>         0.0600 
     48 H10        72.8765   22.3157   27.7804 H         1 <0>         0.0600 
     49 H11        74.8299   21.1235   37.6909 H         1 <0>         0.0600 
     50 H12        76.4761   20.9537   38.2220 H         1 <0>         0.0600 
     51 H13        76.8489   19.8079   35.8427 H         1 <0>         0.0600 
     52 H14        75.1115   19.6194   35.8428 H         1 <0>         0.0600 
     53 H15        71.9971   23.8363   29.4428 H         1 <0>         0.0600 
     54 H16        76.0557   23.1644   37.2158 H         1 <0>         0.0600 
     55 H17        76.9990   21.9586   28.3155 H         1 <0>         0.3537 
     56 H18        78.5651   22.4020   28.7854 H         1 <0>         0.3537 
     57 H19        80.2582   26.8329   28.2511 H         1 <0>         0.3600 
     58 H20        79.1776   28.0092   27.7130 H         1 <0>         0.3600 
     59 H21        77.1530   27.4683   26.7964 H         1 <0>         0.3000 
     60 H22        75.7898   21.9963   34.5448 H         1 <0>         0.3000 
     61 H23        71.2166   21.3450   31.3722 H         1 <0>         0.4286 
     62 H24        70.1460   23.9042   29.5992 H         1 <0>         0.4286 
@<TRIPOS>BOND
     1    1    3 ar   
     2    1   10 ar   
     3    1   39 1    
     4    2    4 ar   
     5    2   10 ar   
     6    2   40 1    
     7    3   11 ar   
     8    3   41 1    
     9    4   11 ar   
    10    4   42 1    
    11    5    6 1    
    12    5    7 1    
    13    5   43 1    
    14    5   44 1    
    15    6   12 1    
    16    6   45 1    
    17    6   46 1    
    18    7   16 1    
    19    7   47 1    
    20    7   48 1    
    21    8    9 1    
    22    8   17 1    
    23    8   49 1    
    24    8   50 1    
    25    9   18 1    
    26    9   51 1    
    27    9   52 1    
    28   10   16 1    
    29   11   19 1    
    30   12   13 ar   
    31   12   14 ar   
    32   13   23 1    
    33   13   26 ar   
    34   14   25 ar   
    35   14   32 2    
    36   15   24 1    
    37   15   25 ar   
    38   15   26 ar   
    39   16   21 1    
    40   16   53 1    
    41   17   20 1    
    42   17   27 1    
    43   17   54 1    
    44   18   30 1    
    45   18   33 2    
    46   19   27 am   BACKBONE|DICT|INTERRES
    47   19   34 2    
    48   20   31 1    
    49   20   35 2    
    50   21   22 1    
    51   21   28 1    
    52   21   29 1    
    53   22   36 1    
    54   22   37 1    
    55   22   38 1    
    56   23   55 1    
    57   23   56 1    
    58   24   57 1    
    59   24   58 1    
    60   25   59 1    
    61   27   60 1    
    62   28   61 1    
    63   29   62 1    
@<TRIPOS>SUBSTRUCTURE
     1 <0>         1 GROUP             0       ****    0 ROOT    
@<TRIPOS>MOLECULE
pur2-ligand
62   63    1
SMALL
USER_CHARGES


@<TRIPOS>ATOM
      1 C1         73.3363   21.8038   31.6647 C.ar      1 <0>        -0.1150 
      2 C2         72.4674   24.0656   31.8932 C.ar      1 <0>        -0.1150 
      3 C3         73.7455   21.8356   33.0017 C.ar      1 <0>        -0.1150 
      4 C4         72.9457   24.1191   33.2205 C.ar      1 <0>        -0.1150 
      5 C5         74.2696   23.5233   28.5177 C.3       1 <0>        -0.1200 
      6 C6         75.0681   23.4171   27.2124 C.3       1 <0>        -0.1200 
      7 C7         73.1719   22.4621   28.6301 C.3       1 <0>        -0.1200 
      8 C8         75.9087   20.5774   36.6591 C.3       1 <0>        -0.1200 
      9 C9         76.3801   20.0307   38.0225 C.3       1 <0>        -0.2200 
     10 C10        72.6744   22.9121   31.1036 C.ar      1 <0>        -0.1150 
     11 C11        73.6283   23.0112   33.7674 C.ar      1 <0>        -0.1150 
     12 C12        76.2757   24.3341   27.2706 C.ar      1 <0>        -0.0567 
     13 C13        77.4651   23.9198   27.7749 C.ar      1 <0>         0.1405 
     14 C14        76.1402   25.7328   26.8261 C.ar      1 <0>         0.5567 
     15 C15        78.4025   26.0355   27.6374 C.ar      1 <0>         0.5465 
     16 C16        72.1039   22.8161   29.6891 C.3       1 <0>         0.0550 
     17 C17        76.1578   22.0836   36.4204 C.3       1 <0>         0.0400 
     18 C18        76.5462   18.5104   38.0057 C.2       1 <0>         0.7000 
     19 C19        74.2277   23.0560   35.1400 C.2       1 <0>         0.6150 
     20 C20        77.6441   22.4827   36.3289 C.2       1 <0>         0.7000 
     21 C21        70.7873   21.9697   29.6488 C.3       1 <0>         0.5300 
     22 C22        70.5050   21.1105   28.3788 C.3       1 <0>         0.6171 
     23 N1         77.7143   22.6427   28.2421 N.pl3     1 <0>        -0.7254 
     24 N2         79.3459   27.0181   27.8427 N.pl3     1 <0>        -0.7850 
     25 N3         77.2219   26.5106   27.0630 N.pl3     1 <0>        -0.4225 
     26 N4         78.5458   24.7849   27.9406 N.2       1 <0>        -0.4815 
     27 N5         75.4367   22.4760   35.2169 N.am      1 <0>        -0.5000 
     28 O1         70.7933   21.0362   30.6941 O.3       1 <0>        -0.6936 
     29 O2         69.7457   22.9007   29.8330 O.3       1 <0>        -0.6936 
     30 O3         77.3459   18.0440   37.1633 O.co2     1 <0>        -0.8000 
     31 O4         78.2866   22.2361   35.2784 O.co2     1 <0>        -0.8000 
     32 O5         75.1539   26.1981   26.2499 O.2       1 <0>        -0.5000 
     33 O6         75.9208   17.8438   38.8567 O.co2     1 <0>        -0.8000 
     34 O7         73.6469   23.5940   36.0813 O.2       1 <0>        -0.5000 
     35 O8         78.1458   23.0363   37.3310 O.co2     1 <0>        -0.8000 
     36 F1         70.4233   21.8673   27.2897 F         1 <0>        -0.2057 
     37 F2         71.4592   20.1979   28.1842 F         1 <0>        -0.2057 
     38 F3         69.3456   20.4670   28.5103 F         1 <0>        -0.2057 
     39 H1         73.4704   20.8971   31.0916 H         1 <0>         0.1150 
     40 H2         71.9488   24.9197   31.4803 H         1 <0>         0.1150 
     41 H3         74.1459   20.9406   33.4423 H         1 <0>         0.1150 
     42 H4         72.8145   25.0193   33.8042 H         1 <0>         0.1150 
     43 H5         73.8253   24.5188   28.5513 H         1 <0>         0.0600 
     44 H6         74.9323   23.4488   29.3809 H         1 <0>         0.0600 
     45 H7         75.3897   22.3879   27.0503 H         1 <0>         0.0600 
     46 H8         74.4429   23.6704   26.3559 H         1 <0>         0.0600 
     47 H9         73.6136   21.4832   28.8187 H         1 <0>         0.0600 
     48 H10        72.7046   22.4020   27.6520 H         1 <0>         0.0600 
     49 H11        76.3896   20.0289   35.8475 H         1 <0>         0.0600 
     50 H12        74.8433   20.3633   36.5618 H         1 <0>         0.0600 
     51 H13        75.6762   20.3199   38.8036 H         1 <0>         0.0600 
     52 H14        77.3396   20.4627   38.3026 H         1 <0>         0.0600 
     53 H15        71.8241   23.8361   29.4430 H         1 <0>         0.0600 
     54 H16        75.7365   22.6297   37.2665 H         1 <0>         0.0600 
     55 H17        76.9640   21.9710   28.3178 H         1 <0>         0.3537 
     56 H18        78.5429   22.4002   28.7700 H         1 <0>         0.3537 
     57 H19        80.2513   26.8325   28.2675 H         1 <0>         0.3600 
     58 H20        79.1799   28.0064   27.7074 H         1 <0>         0.3600 
     59 H21        77.1900   27.4673   26.7344 H         1 <0>         0.3000 
     60 H22        75.8213   22.0989   34.3611 H         1 <0>         0.3000 
     61 H23        71.3177   21.4024   31.3916 H         1 <0>         0.4286 
     62 H24        70.1175   23.7778   29.7967 H         1 <0>         0.4286 
@<TRIPOS>BOND
     1    1    3 ar   
     2    1   10 ar   
     3    1   39 1    
     4    2    4 ar   
     5    2   10 ar   
     6    2   40 1    
     7    3   11 ar   
     8    3   41 1    
     9    4   11 ar   
    10    4   42 1    
    11    5    6 1    
    12    5    7 1    
    13    5   43 1    
    14    5   44 1    
    15    6   12 1    
    16    6   45 1    
    17    6   46 1    
    18    7   16 1    
    19    7   47 1    
    20    7   48 1    
    21    8    9 1    
    22    8   17 1    
    23    8   49 1    
    24    8   50 1    
    25    9   18 1    
    26    9   51 1    
    27    9   52 1    
    28   10   16 1    
    29   11   19 1    
    30   12   13 ar   
    31   12   14 ar   
    32   13   23 1    
    33   13   26 ar   
    34   14   25 ar   
    35   14   32 2    
    36   15   24 1    
    37   15   25 ar   
    38   15   26 ar   
    39   16   21 1    
    40   16   53 1    
    41   17   20 1    
    42   17   27 1    
    43   17   54 1    
    44   18   30 1    
    45   18   33 2    
    46   19   27 am   BACKBONE|DICT|INTERRES
    47   19   34 2    
    48   20   31 1    
    49   20   35 2    
    50   21   22 1    
    51   21   28 1    
    52   21   29 1    
    53   22   36 1    
    54   22   37 1    
    55   22   38 1    
    56   23   55 1    
    57   23   56 1    
    58   24   57 1    
    59   24   58 1    
    60   25   59 1    
    61   27   60 1    
    62   28   61 1    
    63   29   62 1    
@<TRIPOS>SUBSTRUCTURE
     1 <0>         1 GROUP             0       ****    0 ROOT    
@<TRIPOS>MOLECULE
pur2-ligand
62   63    1
SMALL
USER_CHARGES


@<TRIPOS>ATOM
      1 C1         73.3243   21.6006   31.1364 C.ar      1 <0>        -0.1150 
      2 C2         72.5001   23.8606   30.8122 C.ar      1 <0>        -0.1150 
      3 C3         73.3771   21.8249   32.5274 C.ar      1 <0>        -0.1150 
      4 C4         72.5369   24.0841   32.1951 C.ar      1 <0>        -0.1150 
      5 C5         75.0969   22.3008   28.1206 C.3       1 <0>        -0.1200 
      6 C6         75.2245   23.4108   27.0577 C.3       1 <0>        -0.1200 
      7 C7         73.7319   21.6068   28.0841 C.3       1 <0>        -0.1200 
      8 C8         75.5128   22.4041   36.9756 C.3       1 <0>        -0.1200 
      9 C9         76.6449   23.3087   36.4540 C.3       1 <0>        -0.2200 
     10 C10        72.8370   22.6068   30.2735 C.ar      1 <0>        -0.1150 
     11 C11        72.9464   23.0593   33.0644 C.ar      1 <0>        -0.1150 
     12 C12        76.3987   24.3693   27.2519 C.ar      1 <0>        -0.0567 
     13 C13        77.6524   23.9954   27.6252 C.ar      1 <0>         0.1405 
     14 C14        76.1583   25.7946   26.9747 C.ar      1 <0>         0.5567 
     15 C15        78.4423   26.1721   27.6793 C.ar      1 <0>         0.5465 
     16 C16        72.5837   22.3604   28.7883 C.3       1 <0>         0.0550 
     17 C17        74.1061   22.9676   36.6914 C.3       1 <0>         0.0400 
     18 C18        78.0018   22.6361   36.5023 C.2       1 <0>         0.7000 
     19 C19        72.8306   23.2728   34.5391 C.2       1 <0>         0.6150 
     20 C20        73.9033   24.3967   37.2438 C.2       1 <0>         0.7000 
     21 C21        71.1473   21.8007   28.4585 C.3       1 <0>         0.5300 
     22 C22        70.1174   21.7835   29.6277 C.3       1 <0>         0.6171 
     23 N1         78.0809   22.7053   27.8429 N.pl3     1 <0>        -0.7254 
     24 N2         79.3459   27.1811   27.9224 N.pl3     1 <0>        -0.7850 
     25 N3         77.2014   26.6192   27.2293 N.pl3     1 <0>        -0.4225 
     26 N4         78.6763   24.9129   27.8426 N.2       1 <0>        -0.4815 
     27 N5         73.8709   22.8265   35.2531 N.am      1 <0>        -0.5000 
     28 O1         70.5800   22.6363   27.4612 O.3       1 <0>        -0.6936 
     29 O2         71.2367   20.4599   28.0061 O.3       1 <0>        -0.6936 
     30 O3         78.5460   22.6360   37.6246 O.co2     1 <0>        -0.8000 
     31 O4         73.4185   24.4903   38.3924 O.co2     1 <0>        -0.8000 
     32 O5         75.1204   26.2363   26.4813 O.2       1 <0>        -0.5000 
     33 O6         78.5457   22.2364   35.4436 O.co2     1 <0>        -0.8000 
     34 O7         71.8393   23.8363   35.0058 O.2       1 <0>        -0.5000 
     35 O8         74.2678   25.3614   36.5332 O.co2     1 <0>        -0.8000 
     36 F1         68.9485   21.2831   29.2185 F         1 <0>        -0.2057 
     37 F2         70.5461   21.0363   30.6428 F         1 <0>        -0.2057 
     38 F3         69.8845   23.0158   30.0714 F         1 <0>        -0.2057 
     39 H1         73.6018   20.6359   30.7447 H         1 <0>         0.1150 
     40 H2         72.1460   24.6490   30.1663 H         1 <0>         0.1150 
     41 H3         73.6976   21.0244   33.1791 H         1 <0>         0.1150 
     42 H4         72.2136   25.0372   32.5882 H         1 <0>         0.1150 
     43 H5         75.3017   22.6933   29.1172 H         1 <0>         0.0600 
     44 H6         75.8395   21.5279   27.9318 H         1 <0>         0.0600 
     45 H7         75.2878   22.9916   26.0556 H         1 <0>         0.0600 
     46 H8         74.2984   23.9850   27.0654 H         1 <0>         0.0600 
     47 H9         73.8261   20.6237   28.5296 H         1 <0>         0.0600 
     48 H10        73.4814   21.4359   27.0428 H         1 <0>         0.0600 
     49 H11        75.6001   21.4042   36.5467 H         1 <0>         0.0600 
     50 H12        75.6331   22.2779   38.0529 H         1 <0>         0.0600 
     51 H13        76.7021   24.2222   37.0468 H         1 <0>         0.0600 
     52 H14        76.4404   23.6314   35.4425 H         1 <0>         0.0600 
     53 H15        72.6269   23.3643   28.3745 H         1 <0>         0.0600 
     54 H16        73.3758   22.3264   37.1861 H         1 <0>         0.0600 
     55 H17        77.4058   21.9588   27.9206 H         1 <0>         0.3537 
     56 H18        78.9669   22.5103   28.2843 H         1 <0>         0.3537 
     57 H19        80.2769   27.0026   28.2891 H         1 <0>         0.3600 
     58 H20        79.1237   28.1679   27.8988 H         1 <0>         0.3600 
     59 H21        77.0945   27.5937   26.9819 H         1 <0>         0.3000 
     60 H22        74.6276   22.4130   34.7301 H         1 <0>         0.3000 
     61 H23        70.9460   23.5308   27.5603 H         1 <0>         0.4286 
     62 H24        71.8299   20.4215   27.2692 H         1 <0>         0.4286 
@<TRIPOS>BOND
     1    1    3 ar   
     2    1   10 ar   
     3    1   39 1    
     4    2    4 ar   
     5    2   10 ar   
     6    2   40 1    
     7    3   11 ar   
     8    3   41 1    
     9    4   11 ar   
    10    4   42 1    
    11    5    6 1    
    12    5    7 1    
    13    5   43 1    
    14    5   44 1    
    15    6   12 1    
    16    6   45 1    
    17    6   46 1    
    18    7   16 1    
    19    7   47 1    
    20    7   48 1    
    21    8    9 1    
    22    8   17 1    
    23    8   49 1    
    24    8   50 1    
    25    9   18 1    
    26    9   51 1    
    27    9   52 1    
    28   10   16 1    
    29   11   19 1    
    30   12   13 ar   
    31   12   14 ar   
    32   13   23 1    
    33   13   26 ar   
    34   14   25 ar   
    35   14   32 2    
    36   15   24 1    
    37   15   25 ar   
    38   15   26 ar   
    39   16   21 1    
    40   16   53 1    
    41   17   20 1    
    42   17   27 1    
    43   17   54 1    
    44   18   30 1    
    45   18   33 2    
    46   19   27 am   BACKBONE|DICT|INTERRES
    47   19   34 2    
    48   20   31 1    
    49   20   35 2    
    50   21   22 1    
    51   21   28 1    
    52   21   29 1    
    53   22   36 1    
    54   22   37 1    
    55   22   38 1    
    56   23   55 1    
    57   23   56 1    
    58   24   57 1    
    59   24   58 1    
    60   25   59 1    
    61   27   60 1    
    62   28   61 1    
    63   29   62 1    
@<TRIPOS>SUBSTRUCTURE
     1 <0>         1 GROUP             0       ****    0 ROOT    
@<TRIPOS>MOLECULE
pur2-ligand
62   63    1
SMALL
USER_CHARGES


@<TRIPOS>ATOM
      1 C1         73.4187   21.5883   31.1515 C.ar      1 <0>        -0.1150 
      2 C2         72.1762   23.6594   31.3374 C.ar      1 <0>        -0.1150 
      3 C3         73.8768   21.7672   32.4629 C.ar      1 <0>        -0.1150 
      4 C4         72.6339   23.8177   32.6717 C.ar      1 <0>        -0.1150 
      5 C5         74.3222   23.4708   28.1760 C.3       1 <0>        -0.1200 
      6 C6         75.1918   23.4663   26.9246 C.3       1 <0>        -0.1200 
      7 C7         73.4291   22.2434   28.1852 C.3       1 <0>        -0.1200 
      8 C8         76.4533   20.7963   36.5038 C.3       1 <0>        -0.1200 
      9 C9         75.4394   19.6471   36.6834 C.3       1 <0>        -0.2200 
     10 C10        72.5818   22.5469   30.5582 C.ar      1 <0>        -0.1150 
     11 C11        73.5255   22.8780   33.2488 C.ar      1 <0>        -0.1150 
     12 C12        76.3410   24.4200   27.1174 C.ar      1 <0>        -0.0567 
     13 C13        77.5228   24.0170   27.6410 C.ar      1 <0>         0.1405 
     14 C14        76.1462   25.8340   26.7774 C.ar      1 <0>         0.5567 
     15 C15        78.4037   26.1558   27.6132 C.ar      1 <0>         0.5465 
     16 C16        72.1871   22.3820   29.0834 C.3       1 <0>         0.0550 
     17 C17        75.8670   22.2142   36.2664 C.3       1 <0>         0.0400 
     18 C18        76.1176   18.2727   36.7986 C.2       1 <0>         0.7000 
     19 C19        74.0962   23.0476   34.6471 C.2       1 <0>         0.6150 
     20 C20        77.0719   23.1868   36.2423 C.2       1 <0>         0.7000 
     21 C21        71.1562   21.2609   28.7352 C.3       1 <0>         0.5300 
     22 C22        70.0277   21.1108   29.7699 C.3       1 <0>         0.6171 
     23 N1         77.8022   22.7251   28.0403 N.pl3     1 <0>        -0.7254 
     24 N2         79.3455   27.1339   27.8427 N.pl3     1 <0>        -0.7850 
     25 N3         77.2096   26.6289   27.0550 N.pl3     1 <0>        -0.4225 
     26 N4         78.5679   24.9010   27.8806 N.2       1 <0>        -0.4815 
     27 N5         75.1305   22.2420   34.9910 N.am      1 <0>        -0.5000 
     28 O1         70.5468   21.5903   27.4931 O.3       1 <0>        -0.6936 
     29 O2         71.8250   20.0180   28.6422 O.3       1 <0>        -0.6936 
     30 O3         75.3967   17.2641   36.6427 O.co2     1 <0>        -0.8000 
     31 O4         78.1457   22.8168   35.7001 O.co2     1 <0>        -0.8000 
     32 O5         75.1328   26.2835   26.2429 O.2       1 <0>        -0.5000 
     33 O6         77.3459   18.2362   37.0428 O.co2     1 <0>        -0.8000 
     34 O7         73.6335   23.8994   35.4041 O.2       1 <0>        -0.5000 
     35 O8         76.9306   24.2874   36.8160 O.co2     1 <0>        -0.8000 
     36 F1         69.3490   22.2543   29.8428 F         1 <0>        -0.2057 
     37 F2         69.1805   20.1443   29.4121 F         1 <0>        -0.2057 
     38 F3         70.5459   20.8217   30.9639 F         1 <0>        -0.2057 
     39 H1         73.7423   20.7179   30.5987 H         1 <0>         0.1150 
     40 H2         71.5320   24.4130   30.9054 H         1 <0>         0.1150 
     41 H3         74.5459   21.0362   32.8480 H         1 <0>         0.1150 
     42 H4         72.3284   24.6872   33.2357 H         1 <0>         0.1150 
     43 H5         73.7457   24.3943   28.1987 H         1 <0>         0.0600 
     44 H6         74.9330   23.4712   29.0805 H         1 <0>         0.0600 
     45 H7         75.5717   22.4631   26.7349 H         1 <0>         0.0600 
     46 H8         74.6062   23.7340   26.0435 H         1 <0>         0.0600 
     47 H9         74.0349   21.3820   28.4689 H         1 <0>         0.0600 
     48 H10        73.1211   22.0271   27.1693 H         1 <0>         0.0600 
     49 H11        77.0751   20.8312   37.3998 H         1 <0>         0.0600 
     50 H12        77.1296   20.5345   35.6882 H         1 <0>         0.0600 
     51 H13        74.7474   19.6184   35.8429 H         1 <0>         0.0600 
     52 H14        74.8375   19.8156   37.5763 H         1 <0>         0.0600 
     53 H15        71.6926   23.3205   28.8425 H         1 <0>         0.0600 
     54 H16        75.2029   22.4829   37.0894 H         1 <0>         0.0600 
     55 H17        77.0668   22.0340   28.0798 H         1 <0>         0.3537 
     56 H18        78.6280   22.4872   28.5707 H         1 <0>         0.3537 
     57 H19        80.2515   26.9372   28.2600 H         1 <0>         0.3600 
     58 H20        79.1669   28.1261   27.7593 H         1 <0>         0.3600 
     59 H21        77.1564   27.5977   26.7669 H         1 <0>         0.3000 
     60 H22        75.4465   21.5666   34.3054 H         1 <0>         0.3000 
     61 H23        70.1228   20.8059   27.1698 H         1 <0>         0.4286 
     62 H24        72.6302   20.1507   28.1622 H         1 <0>         0.4286 
@<TRIPOS>BOND
     1    1    3 ar   
     2    1   10 ar   
     3    1   39 1    
     4    2    4 ar   
     5    2   10 ar   
     6    2   40 1    
     7    3   11 ar   
     8    3   41 1    
     9    4   11 ar   
    10    4   42 1    
    11    5    6 1    
    12    5    7 1    
    13    5   43 1    
    14    5   44 1    
    15    6   12 1    
    16    6   45 1    
    17    6   46 1    
    18    7   16 1    
    19    7   47 1    
    20    7   48 1    
    21    8    9 1    
    22    8   17 1    
    23    8   49 1    
    24    8   50 1    
    25    9   18 1    
    26    9   51 1    
    27    9   52 1    
    28   10   16 1    
    29   11   19 1    
    30   12   13 ar   
    31   12   14 ar   
    32   13   23 1    
    33   13   26 ar   
    34   14   25 ar   
    35   14   32 2    
    36   15   24 1    
    37   15   25 ar   
    38   15   26 ar   
    39   16   21 1    
    40   16   53 1    
    41   17   20 1    
    42   17   27 1    
    43   17   54 1    
    44   18   30 1    
    45   18   33 2    
    46   19   27 am   BACKBONE|DICT|INTERRES
    47   19   34 2    
    48   20   31 1    
    49   20   35 2    
    50   21   22 1    
    51   21   28 1    
    52   21   29 1    
    53   22   36 1    
    54   22   37 1    
    55   22   38 1    
    56   23   55 1    
    57   23   56 1    
    58   24   57 1    
    59   24   58 1    
    60   25   59 1    
    61   27   60 1    
    62   28   61 1    
    63   29   62 1    
@<TRIPOS>SUBSTRUCTURE
     1 <0>         1 GROUP             0       ****    0 ROOT    
