@<TRIPOS>MOLECULE
pygm-ligand
49   52    1
SMALL
USER_CHARGES


@<TRIPOS>ATOM
      1 C1         42.6935   41.0820   29.0325 C.3       1 <0>         0.0900 
      2 C2         37.7362   33.7696   25.8550 C.ar      1 <0>        -0.1150 
      3 C3         38.8735   34.3620   25.2854 C.ar      1 <0>        -0.1150 
      4 C4         37.4458   33.9752   27.2165 C.ar      1 <0>        -0.1150 
      5 C5         39.7387   35.1147   26.0939 C.ar      1 <0>        -0.1150 
      6 C6         38.0190   37.0381   34.0937 C.ar      1 <0>        -0.1150 
      7 C7         37.0239   34.2880   30.1251 C.2       1 <0>        -0.1150 
      8 C8         39.6229   40.0080   31.0500 C.3       1 <0>        -0.1200 
      9 C9         40.4354   40.6907   29.9352 C.3       1 <0>         0.1500 
     10 C10        42.1268   38.8820   29.9779 C.3       1 <0>         0.1500 
     11 C11        38.2753   34.7845   28.0319 C.ar      1 <0>         0.0000 
     12 C12        39.4623   35.3093   27.4591 C.ar      1 <0>         0.1800 
     13 C13        37.2827   35.9863   33.5362 C.ar      1 <0>         0.1500 
     14 C14        38.8116   37.8633   33.2840 C.ar      1 <0>         0.1500 
     15 C15        36.6051   34.6189   31.4888 C.2       1 <0>         0.5850 
     16 C16        37.8828   35.0721   29.4396 C.2       1 <0>         0.0850 
     17 C17        37.3384   35.7424   32.1400 C.ar      1 <0>        -0.1150 
     18 C18        38.9121   37.6259   31.8867 C.ar      1 <0>        -0.1150 
     19 C19        38.1748   36.5440   31.3235 C.ar      1 <0>         0.0850 
     20 C20        39.8188   38.4798   30.9797 C.3       1 <0>         0.0550 
     21 C21        41.3205   38.1088   31.0470 C.3       1 <0>         0.2050 
     22 N1         41.8792   40.3481   30.0269 N.4       1 <0>        -0.1000 
     23 O1         36.5384   35.2194   34.3820 O.3       1 <0>        -0.5850 
     24 O2         39.4632   38.8833   33.9112 O.3       1 <0>        -0.5850 
     25 O3         41.9106   38.3367   32.3146 O.3       1 <0>        -0.6830 
     26 O4         35.7383   33.9443   32.0410 O.2       1 <0>        -0.4700 
     27 O5         38.2853   36.2809   29.9704 O.3       1 <0>        -0.1700 
     28 Cl1        40.6561   36.1379   28.3825 Cl        1 <0>        -0.1800 
     29 H1         42.4095   40.8123   28.0146 H         1 <0>         0.0600 
     30 H2         42.5673   42.1590   29.1486 H         1 <0>         0.0600 
     31 H3         43.7537   40.8605   29.1577 H         1 <0>         0.0600 
     32 H4         37.0693   33.1773   25.2470 H         1 <0>         0.1150 
     33 H5         39.0927   34.2330   24.2394 H         1 <0>         0.1150 
     34 H6         36.5378   33.5471   27.6010 H         1 <0>         0.1150 
     35 H7         40.6435   35.5327   25.6803 H         1 <0>         0.1150 
     36 H8         37.9692   37.2283   35.1562 H         1 <0>         0.1150 
     37 H9         36.6306   33.3729   29.7111 H         1 <0>         0.1150 
     38 H10        39.9294   40.4238   32.0081 H         1 <0>         0.0600 
     39 H11        38.5655   40.2524   30.9300 H         1 <0>         0.0600 
     40 H12        40.0522   40.3978   28.9560 H         1 <0>         0.0600 
     41 H13        40.3119   41.7729   30.0078 H         1 <0>         0.0600 
     42 H14        41.8580   38.5295   28.9828 H         1 <0>         0.0600 
     43 H15        43.1916   38.6790   30.0959 H         1 <0>         0.0600 
     44 H16        39.5144   38.2418   29.9615 H         1 <0>         0.0600 
     45 H17        41.4299   37.0392   30.8641 H         1 <0>         0.0600 
     46 H18        42.1961   40.6619   30.9332 H         1 <0>         0.2900 
     47 H19        36.7590   35.2842   35.3008 H         1 <0>         0.4350 
     48 H20        39.7920   39.5340   33.3127 H         1 <0>         0.4350 
     49 H21        41.7593   39.2238   32.5993 H         1 <0>         0.4180 
@<TRIPOS>BOND
     1    1   22 1    
     2    1   29 1    
     3    1   30 1    
     4    1   31 1    
     5    2    3 ar   
     6    2    4 ar   
     7    2   32 1    
     8    3    5 ar   
     9    3   33 1    
    10    4   11 ar   
    11    4   34 1    
    12    5   12 ar   
    13    5   35 1    
    14    6   13 ar   
    15    6   14 ar   
    16    6   36 1    
    17    7   15 1    
    18    7   16 2    
    19    7   37 1    
    20    8    9 1    
    21    8   20 1    
    22    8   38 1    
    23    8   39 1    
    24    9   22 1    
    25    9   40 1    
    26    9   41 1    
    27   10   21 1    
    28   10   22 1    
    29   10   42 1    
    30   10   43 1    
    31   11   12 ar   
    32   11   16 1    
    33   12   28 1    
    34   13   17 ar   
    35   13   23 1    
    36   14   18 ar   
    37   14   24 1    
    38   15   17 1    
    39   15   26 2    
    40   16   27 1    
    41   17   19 ar   
    42   18   19 ar   
    43   18   20 1    
    44   19   27 1    
    45   20   21 1    
    46   20   44 1    
    47   21   25 1    
    48   21   45 1    
    49   22   46 1    
    50   23   47 1    
    51   24   48 1    
    52   25   49 1    
@<TRIPOS>SUBSTRUCTURE
     1 <0>         1 GROUP             0       ****    0 ROOT    
@<TRIPOS>MOLECULE
pygm-ligand
49   52    1
SMALL
USER_CHARGES


@<TRIPOS>ATOM
      1 C1         42.1928   41.4631   28.7057 C.3       1 <0>         0.0900 
      2 C2         37.7385   33.6893   25.8640 C.ar      1 <0>        -0.1150 
      3 C3         38.8738   34.2911   25.2971 C.ar      1 <0>        -0.1150 
      4 C4         37.4428   33.9008   27.2230 C.ar      1 <0>        -0.1150 
      5 C5         39.7376   35.0501   26.1022 C.ar      1 <0>        -0.1150 
      6 C6         38.0306   37.2230   33.9686 C.ar      1 <0>        -0.1150 
      7 C7         37.0233   34.2577   30.1444 C.2       1 <0>        -0.1150 
      8 C8         39.2108   40.0811   30.6704 C.3       1 <0>        -0.1200 
      9 C9         39.9661   40.8091   29.5432 C.3       1 <0>         0.1500 
     10 C10        41.8663   39.2322   29.7079 C.3       1 <0>         0.1500 
     11 C11        38.2641   34.7233   28.0300 C.ar      1 <0>         0.0000 
     12 C12        39.4542   35.2519   27.4644 C.ar      1 <0>         0.1800 
     13 C13        37.2973   36.1300   33.4809 C.ar      1 <0>         0.1500 
     14 C14        38.7892   38.0214   33.0978 C.ar      1 <0>         0.1500 
     15 C15        36.6106   34.6361   31.5023 C.2       1 <0>         0.5850 
     16 C16        37.8563   35.0364   29.4227 C.2       1 <0>         0.0850 
     17 C17        37.3395   35.8019   32.0997 C.ar      1 <0>        -0.1150 
     18 C18        38.8476   37.7210   31.7145 C.ar      1 <0>        -0.1150 
     19 C19        38.1394   36.5857   31.2315 C.ar      1 <0>         0.0850 
     20 C20        39.6423   38.6016   30.7340 C.3       1 <0>         0.0550 
     21 C21        41.1789   38.4810   30.8615 C.3       1 <0>         0.2050 
     22 N1         41.4377   40.6557   29.6899 N.4       1 <0>        -0.1000 
     23 O1         36.5385   35.4267   34.3718 O.3       1 <0>        -0.5850 
     24 O2         39.4511   39.0892   33.6311 O.3       1 <0>        -0.5850 
     25 O3         41.6658   39.0560   32.0583 O.3       1 <0>        -0.6830 
     26 O4         35.7389   33.9894   32.0818 O.2       1 <0>        -0.4700 
     27 O5         38.2165   36.2787   29.8909 O.3       1 <0>        -0.1700 
     28 Cl1        40.6377   36.0997   28.3935 Cl        1 <0>        -0.1800 
     29 H1         41.9855   41.1277   27.6871 H         1 <0>         0.0600 
     30 H2         41.9247   42.5164   28.7818 H         1 <0>         0.0600 
     31 H3         43.2666   41.3831   28.8830 H         1 <0>         0.0600 
     32 H4         37.0750   33.0921   25.2566 H         1 <0>         0.1150 
     33 H5         39.0914   34.1645   24.2511 H         1 <0>         0.1150 
     34 H6         36.5386   33.4703   27.6158 H         1 <0>         0.1150 
     35 H7         40.6391   35.4711   25.6822 H         1 <0>         0.1150 
     36 H8         37.9906   37.4657   35.0206 H         1 <0>         0.1150 
     37 H9         36.6547   33.3162   29.7681 H         1 <0>         0.1150 
     38 H10        39.3984   40.5914   31.6136 H         1 <0>         0.0600 
     39 H11        38.1371   40.1483   30.4953 H         1 <0>         0.0600 
     40 H12        39.6548   40.4227   28.5715 H         1 <0>         0.0600 
     41 H13        39.7028   41.8677   29.5596 H         1 <0>         0.0600 
     42 H14        41.6258   38.7694   28.7498 H         1 <0>         0.0600 
     43 H15        42.9501   39.1706   29.8214 H         1 <0>         0.0600 
     44 H16        39.4104   38.2327   29.7368 H         1 <0>         0.0600 
     45 H17        41.4709   37.4294   30.8477 H         1 <0>         0.0600 
     46 H18        41.6762   41.0100   30.6065 H         1 <0>         0.2900 
     47 H19        36.7688   35.5432   35.2824 H         1 <0>         0.4350 
     48 H20        39.1462   39.3204   34.4969 H         1 <0>         0.4350 
     49 H21        40.9902   38.9613   32.7248 H         1 <0>         0.4180 
@<TRIPOS>BOND
     1    1   22 1    
     2    1   29 1    
     3    1   30 1    
     4    1   31 1    
     5    2    3 ar   
     6    2    4 ar   
     7    2   32 1    
     8    3    5 ar   
     9    3   33 1    
    10    4   11 ar   
    11    4   34 1    
    12    5   12 ar   
    13    5   35 1    
    14    6   13 ar   
    15    6   14 ar   
    16    6   36 1    
    17    7   15 1    
    18    7   16 2    
    19    7   37 1    
    20    8    9 1    
    21    8   20 1    
    22    8   38 1    
    23    8   39 1    
    24    9   22 1    
    25    9   40 1    
    26    9   41 1    
    27   10   21 1    
    28   10   22 1    
    29   10   42 1    
    30   10   43 1    
    31   11   12 ar   
    32   11   16 1    
    33   12   28 1    
    34   13   17 ar   
    35   13   23 1    
    36   14   18 ar   
    37   14   24 1    
    38   15   17 1    
    39   15   26 2    
    40   16   27 1    
    41   17   19 ar   
    42   18   19 ar   
    43   18   20 1    
    44   19   27 1    
    45   20   21 1    
    46   20   44 1    
    47   21   25 1    
    48   21   45 1    
    49   22   46 1    
    50   23   47 1    
    51   24   48 1    
    52   25   49 1    
@<TRIPOS>SUBSTRUCTURE
     1 <0>         1 GROUP             0       ****    0 ROOT    
@<TRIPOS>MOLECULE
pygm-ligand
49   52    1
SMALL
USER_CHARGES


@<TRIPOS>ATOM
      1 C1         42.1545   41.4295   28.5400 C.3       1 <0>         0.0900 
      2 C2         37.7427   33.6623   25.8369 C.ar      1 <0>        -0.1150 
      3 C3         38.8768   34.2771   25.2813 C.ar      1 <0>        -0.1150 
      4 C4         37.4447   33.8570   27.1971 C.ar      1 <0>        -0.1150 
      5 C5         39.7382   35.0315   26.0915 C.ar      1 <0>        -0.1150 
      6 C6         38.0380   37.2515   33.8973 C.ar      1 <0>        -0.1150 
      7 C7         37.0133   34.2366   30.1227 C.2       1 <0>        -0.1150 
      8 C8         39.1888   40.0710   30.5488 C.3       1 <0>        -0.1200 
      9 C9         39.9348   40.7812   29.4031 C.3       1 <0>         0.1500 
     10 C10        41.8440   39.2214   29.5935 C.3       1 <0>         0.1500 
     11 C11        38.2618   34.6814   28.0065 C.ar      1 <0>         0.0000 
     12 C12        39.4555   35.2129   27.4536 C.ar      1 <0>         0.1800 
     13 C13        37.3195   36.1422   33.4263 C.ar      1 <0>         0.1500 
     14 C14        38.7836   38.0497   33.0151 C.ar      1 <0>         0.1500 
     15 C15        36.6114   34.6360   31.4773 C.2       1 <0>         0.5850 
     16 C16        37.8458   35.0069   29.3902 C.2       1 <0>         0.0850 
     17 C17        37.3500   35.8043   32.0505 C.ar      1 <0>        -0.1150 
     18 C18        38.8418   37.7302   31.6352 C.ar      1 <0>        -0.1150 
     19 C19        38.1385   36.5835   31.1696 C.ar      1 <0>         0.0850 
     20 C20        39.6294   38.5969   30.6372 C.3       1 <0>         0.0550 
     21 C21        41.1663   38.4906   30.7676 C.3       1 <0>         0.2050 
     22 N1         41.4076   40.6404   29.5443 N.4       1 <0>        -0.1000 
     23 O1         36.5786   35.4367   34.3308 O.3       1 <0>        -0.5850 
     24 O2         39.4322   39.1343   33.5310 O.3       1 <0>        -0.5850 
     25 O3         41.6453   39.0998   31.9491 O.3       1 <0>        -0.6830 
     26 O4         35.7399   34.0146   32.0858 O.2       1 <0>        -0.4700 
     27 O5         38.2013   36.2589   29.8344 O.3       1 <0>        -0.1700 
     28 Cl1        40.6426   36.0401   28.3954 Cl        1 <0>        -0.1800 
     29 H1         41.9570   41.0681   27.5313 H         1 <0>         0.0600 
     30 H2         41.8735   42.4817   28.5865 H         1 <0>         0.0600 
     31 H3         43.2283   41.3676   28.7214 H         1 <0>         0.0600 
     32 H4         37.0848   33.0719   25.2183 H         1 <0>         0.1150 
     33 H5         39.0988   34.1677   24.2345 H         1 <0>         0.1150 
     34 H6         36.5382   33.4358   27.5873 H         1 <0>         0.1150 
     35 H7         40.6412   35.4586   25.6813 H         1 <0>         0.1150 
     36 H8         37.9986   37.4994   34.9477 H         1 <0>         0.1150 
     37 H9         36.6466   33.2892   29.7588 H         1 <0>         0.1150 
     38 H10        39.3748   40.5974   31.4830 H         1 <0>         0.0600 
     39 H11        38.1139   40.1255   30.3774 H         1 <0>         0.0600 
     40 H12        39.6208   40.3746   28.4410 H         1 <0>         0.0600 
     41 H13        39.6660   41.8358   29.3986 H         1 <0>         0.0600 
     42 H14        41.6034   38.7353   28.6487 H         1 <0>         0.0600 
     43 H15        42.9288   39.1680   29.7057 H         1 <0>         0.0600 
     44 H16        39.4014   38.2087   29.6478 H         1 <0>         0.0600 
     45 H17        41.4651   37.4424   30.7780 H         1 <0>         0.0600 
     46 H18        41.6482   41.0144   30.4520 H         1 <0>         0.2900 
     47 H19        36.1555   34.6774   33.9517 H         1 <0>         0.4350 
     48 H20        39.1212   39.3740   34.3937 H         1 <0>         0.4350 
     49 H21        40.9761   38.9992   32.6221 H         1 <0>         0.4180 
@<TRIPOS>BOND
     1    1   22 1    
     2    1   29 1    
     3    1   30 1    
     4    1   31 1    
     5    2    3 ar   
     6    2    4 ar   
     7    2   32 1    
     8    3    5 ar   
     9    3   33 1    
    10    4   11 ar   
    11    4   34 1    
    12    5   12 ar   
    13    5   35 1    
    14    6   13 ar   
    15    6   14 ar   
    16    6   36 1    
    17    7   15 1    
    18    7   16 2    
    19    7   37 1    
    20    8    9 1    
    21    8   20 1    
    22    8   38 1    
    23    8   39 1    
    24    9   22 1    
    25    9   40 1    
    26    9   41 1    
    27   10   21 1    
    28   10   22 1    
    29   10   42 1    
    30   10   43 1    
    31   11   12 ar   
    32   11   16 1    
    33   12   28 1    
    34   13   17 ar   
    35   13   23 1    
    36   14   18 ar   
    37   14   24 1    
    38   15   17 1    
    39   15   26 2    
    40   16   27 1    
    41   17   19 ar   
    42   18   19 ar   
    43   18   20 1    
    44   19   27 1    
    45   20   21 1    
    46   20   44 1    
    47   21   25 1    
    48   21   45 1    
    49   22   46 1    
    50   23   47 1    
    51   24   48 1    
    52   25   49 1    
@<TRIPOS>SUBSTRUCTURE
     1 <0>         1 GROUP             0       ****    0 ROOT    
@<TRIPOS>MOLECULE
pygm-ligand
49   52    1
SMALL
USER_CHARGES


@<TRIPOS>ATOM
      1 C1         42.1812   41.2218   29.4584 C.3       1 <0>         0.0900 
      2 C2         38.0479   36.9396   32.9730 C.ar      1 <0>        -0.1150 
      3 C3         37.2652   36.1892   33.8606 C.ar      1 <0>        -0.1150 
      4 C4         38.1384   36.5474   31.6263 C.ar      1 <0>        -0.1150 
      5 C5         36.5384   35.0880   33.3749 C.ar      1 <0>        -0.1150 
      6 C6         39.3383   35.2291   24.8817 C.ar      1 <0>        -0.1150 
      7 C7         37.4655   33.8249   29.1791 C.2       1 <0>        -0.1150 
      8 C8         39.6257   38.4671   28.7964 C.3       1 <0>        -0.1200 
      9 C9         40.1425   39.8758   29.1241 C.3       1 <0>         0.1500 
     10 C10        42.0944   39.5389   27.6589 C.3       1 <0>         0.1500 
     11 C11        37.4276   35.4348   31.1099 C.ar      1 <0>         0.0000 
     12 C12        36.5508   34.7356   32.0082 C.ar      1 <0>         0.1800 
     13 C13        38.7754   34.2145   25.6523 C.ar      1 <0>         0.1500 
     14 C14        39.7171   36.4461   25.4610 C.ar      1 <0>         0.1500 
     15 C15        37.8979   33.4068   27.8559 C.2       1 <0>         0.5850 
     16 C16        37.7713   35.0296   29.7025 C.2       1 <0>         0.0850 
     17 C17        38.5379   34.4423   27.0284 C.ar      1 <0>        -0.1150 
     18 C18        39.5327   36.6825   26.8489 C.ar      1 <0>        -0.1150 
     19 C19        38.8788   35.6807   27.6362 C.ar      1 <0>         0.0850 
     20 C20        40.0594   38.0262   27.3906 C.3       1 <0>         0.0550 
     21 C21        41.6055   38.1255   27.2940 C.3       1 <0>         0.2050 
     22 N1         41.6212   39.9290   29.0099 N.4       1 <0>        -0.1000 
     23 O1         38.4478   33.0468   25.0185 O.3       1 <0>        -0.5850 
     24 O2         40.1386   37.4349   24.6165 O.3       1 <0>        -0.5850 
     25 O3         42.2358   37.1946   28.1563 O.3       1 <0>        -0.6830 
     26 O4         37.7393   32.2466   27.4729 O.2       1 <0>        -0.4700 
     27 O5         38.5517   35.9119   28.9664 O.3       1 <0>        -0.1700 
     28 Cl1        35.4435   33.4742   31.5644 Cl        1 <0>        -0.1800 
     29 H1         41.8275   42.0406   28.8292 H         1 <0>         0.0600 
     30 H2         41.8914   41.4301   30.4890 H         1 <0>         0.0600 
     31 H3         43.2709   41.2042   29.4204 H         1 <0>         0.0600 
     32 H4         38.6120   37.7892   33.3311 H         1 <0>         0.1150 
     33 H5         37.2243   36.4513   34.9074 H         1 <0>         0.1150 
     34 H6         38.8043   37.1099   31.0041 H         1 <0>         0.1150 
     35 H7         35.9420   34.5106   34.0622 H         1 <0>         0.1150 
     36 H8         39.4787   35.0659   23.8261 H         1 <0>         0.1150 
     37 H9         36.9390   33.0586   29.7077 H         1 <0>         0.1150 
     38 H10        40.0489   37.7773   29.5222 H         1 <0>         0.0600 
     39 H11        38.5401   38.4464   28.8901 H         1 <0>         0.0600 
     40 H12        39.6893   40.6101   28.4547 H         1 <0>         0.0600 
     41 H13        39.8421   40.1414   30.1399 H         1 <0>         0.0600 
     42 H14        41.7334   40.2599   26.9227 H         1 <0>         0.0600 
     43 H15        43.1847   39.5717   27.6211 H         1 <0>         0.0600 
     44 H16        39.6395   38.7771   26.7183 H         1 <0>         0.0600 
     45 H17        41.9519   37.9104   26.2840 H         1 <0>         0.0600 
     46 H18        41.9816   39.2148   29.6298 H         1 <0>         0.2900 
     47 H19        38.1079   32.4092   25.6366 H         1 <0>         0.4350 
     48 H20        39.4182   38.0473   24.4820 H         1 <0>         0.4350 
     49 H21        42.1304   36.3259   27.7907 H         1 <0>         0.4180 
@<TRIPOS>BOND
     1    1   22 1    
     2    1   29 1    
     3    1   30 1    
     4    1   31 1    
     5    2    3 ar   
     6    2    4 ar   
     7    2   32 1    
     8    3    5 ar   
     9    3   33 1    
    10    4   11 ar   
    11    4   34 1    
    12    5   12 ar   
    13    5   35 1    
    14    6   13 ar   
    15    6   14 ar   
    16    6   36 1    
    17    7   15 1    
    18    7   16 2    
    19    7   37 1    
    20    8    9 1    
    21    8   20 1    
    22    8   38 1    
    23    8   39 1    
    24    9   22 1    
    25    9   40 1    
    26    9   41 1    
    27   10   21 1    
    28   10   22 1    
    29   10   42 1    
    30   10   43 1    
    31   11   12 ar   
    32   11   16 1    
    33   12   28 1    
    34   13   17 ar   
    35   13   23 1    
    36   14   18 ar   
    37   14   24 1    
    38   15   17 1    
    39   15   26 2    
    40   16   27 1    
    41   17   19 ar   
    42   18   19 ar   
    43   18   20 1    
    44   19   27 1    
    45   20   21 1    
    46   20   44 1    
    47   21   25 1    
    48   21   45 1    
    49   22   46 1    
    50   23   47 1    
    51   24   48 1    
    52   25   49 1    
@<TRIPOS>SUBSTRUCTURE
     1 <0>         1 GROUP             0       ****    0 ROOT    
@<TRIPOS>MOLECULE
pygm-ligand
49   52    1
SMALL
USER_CHARGES


@<TRIPOS>ATOM
      1 C1         42.1859   41.1950   29.4886 C.3       1 <0>         0.0900 
      2 C2         38.0483   36.9096   32.9801 C.ar      1 <0>        -0.1150 
      3 C3         37.2649   36.1581   33.8657 C.ar      1 <0>        -0.1150 
      4 C4         38.1379   36.5207   31.6328 C.ar      1 <0>        -0.1150 
      5 C5         36.5384   35.0584   33.3786 C.ar      1 <0>        -0.1150 
      6 C6         39.3383   35.2287   24.8818 C.ar      1 <0>        -0.1150 
      7 C7         37.4588   33.8127   29.1807 C.2       1 <0>        -0.1150 
      8 C8         39.6231   38.4482   28.8125 C.3       1 <0>        -0.1200 
      9 C9         40.1438   39.8529   29.1498 C.3       1 <0>         0.1500 
     10 C10        42.0890   39.5258   27.6748 C.3       1 <0>         0.1500 
     11 C11        37.4218   35.4121   31.1145 C.ar      1 <0>         0.0000 
     12 C12        36.5464   34.7077   32.0115 C.ar      1 <0>         0.1800 
     13 C13        38.7603   34.2141   25.6455 C.ar      1 <0>         0.1500 
     14 C14        39.7066   36.4447   25.4673 C.ar      1 <0>         0.1500 
     15 C15        37.8906   33.3935   27.8596 C.2       1 <0>         0.5850 
     16 C16        37.7641   35.0144   29.7054 C.2       1 <0>         0.0850 
     17 C17        38.5267   34.4318   27.0255 C.ar      1 <0>        -0.1150 
     18 C18        39.5213   36.6750   26.8548 C.ar      1 <0>        -0.1150 
     19 C19        38.8683   35.6696   27.6375 C.ar      1 <0>         0.0850 
     20 C20        40.0501   38.0157   27.4009 C.3       1 <0>         0.0550 
     21 C21        41.5970   38.1158   27.3028 C.3       1 <0>         0.2050 
     22 N1         41.6222   39.9067   29.0305 N.4       1 <0>        -0.1000 
     23 O1         38.4078   33.0620   24.9978 O.3       1 <0>        -0.5850 
     24 O2         40.1385   37.4320   24.6259 O.3       1 <0>        -0.5850 
     25 O3         42.2263   37.1803   28.1599 O.3       1 <0>        -0.6830 
     26 O4         37.7385   32.2255   27.5064 O.2       1 <0>        -0.4700 
     27 O5         38.5433   35.8975   28.9693 O.3       1 <0>        -0.1700 
     28 Cl1        35.4439   33.4376   31.5716 Cl        1 <0>        -0.1800 
     29 H1         41.8241   42.0220   28.8754 H         1 <0>         0.0600 
     30 H2         41.9065   41.3910   30.5251 H         1 <0>         0.0600 
     31 H3         43.2753   41.1820   29.4380 H         1 <0>         0.0600 
     32 H4         38.6160   37.7551   33.3417 H         1 <0>         0.1150 
     33 H5         37.2244   36.4157   34.9146 H         1 <0>         0.1150 
     34 H6         38.8044   37.0840   31.0135 H         1 <0>         0.1150 
     35 H7         35.9450   34.4792   34.0683 H         1 <0>         0.1150 
     36 H8         39.4859   35.0795   23.8257 H         1 <0>         0.1150 
     37 H9         36.9383   33.0448   29.7116 H         1 <0>         0.1150 
     38 H10        40.0478   37.7523   29.5312 H         1 <0>         0.0600 
     39 H11        38.5385   38.4255   28.9094 H         1 <0>         0.0600 
     40 H12        39.6899   40.5949   28.4917 H         1 <0>         0.0600 
     41 H13        39.8507   40.1105   30.1682 H         1 <0>         0.0600 
     42 H14        41.7244   40.2521   26.9460 H         1 <0>         0.0600 
     43 H15        43.1791   39.5587   27.6345 H         1 <0>         0.0600 
     44 H16        39.6280   38.7696   26.7329 H         1 <0>         0.0600 
     45 H17        41.9445   37.9045   26.2930 H         1 <0>         0.0600 
     46 H18        41.9866   39.1876   29.6406 H         1 <0>         0.2900 
     47 H19        38.5914   33.0648   24.0745 H         1 <0>         0.4350 
     48 H20        39.4221   38.0455   24.4820 H         1 <0>         0.4350 
     49 H21        42.1182   36.3138   27.7888 H         1 <0>         0.4180 
@<TRIPOS>BOND
     1    1   22 1    
     2    1   29 1    
     3    1   30 1    
     4    1   31 1    
     5    2    3 ar   
     6    2    4 ar   
     7    2   32 1    
     8    3    5 ar   
     9    3   33 1    
    10    4   11 ar   
    11    4   34 1    
    12    5   12 ar   
    13    5   35 1    
    14    6   13 ar   
    15    6   14 ar   
    16    6   36 1    
    17    7   15 1    
    18    7   16 2    
    19    7   37 1    
    20    8    9 1    
    21    8   20 1    
    22    8   38 1    
    23    8   39 1    
    24    9   22 1    
    25    9   40 1    
    26    9   41 1    
    27   10   21 1    
    28   10   22 1    
    29   10   42 1    
    30   10   43 1    
    31   11   12 ar   
    32   11   16 1    
    33   12   28 1    
    34   13   17 ar   
    35   13   23 1    
    36   14   18 ar   
    37   14   24 1    
    38   15   17 1    
    39   15   26 2    
    40   16   27 1    
    41   17   19 ar   
    42   18   19 ar   
    43   18   20 1    
    44   19   27 1    
    45   20   21 1    
    46   20   44 1    
    47   21   25 1    
    48   21   45 1    
    49   22   46 1    
    50   23   47 1    
    51   24   48 1    
    52   25   49 1    
@<TRIPOS>SUBSTRUCTURE
     1 <0>         1 GROUP             0       ****    0 ROOT    
@<TRIPOS>MOLECULE
pygm-ligand
49   52    1
SMALL
USER_CHARGES


@<TRIPOS>ATOM
      1 C1         42.8182   40.6637   28.3081 C.3       1 <0>         0.0900 
      2 C2         38.4551   32.4858   26.4516 C.ar      1 <0>        -0.1150 
      3 C3         38.9369   33.3403   25.4493 C.ar      1 <0>        -0.1150 
      4 C4         38.1329   32.9952   27.7196 C.ar      1 <0>        -0.1150 
      5 C5         39.1025   34.7084   25.7207 C.ar      1 <0>        -0.1150 
      6 C6         38.0901   37.3398   33.7723 C.ar      1 <0>        -0.1150 
      7 C7         36.9382   34.2360   30.0895 C.2       1 <0>        -0.1150 
      8 C8         39.6482   39.7600   30.2574 C.3       1 <0>        -0.1200 
      9 C9         40.5127   40.2758   29.0906 C.3       1 <0>         0.1500 
     10 C10        42.2946   38.6324   29.6051 C.3       1 <0>         0.1500 
     11 C11        38.2737   34.3751   28.0057 C.ar      1 <0>         0.0000 
     12 C12        38.7846   35.2308   26.9897 C.ar      1 <0>         0.1800 
     13 C13        37.3384   36.2318   33.3487 C.ar      1 <0>         0.1500 
     14 C14        38.9229   38.0273   32.8764 C.ar      1 <0>         0.1500 
     15 C15        36.6183   34.6419   31.4594 C.2       1 <0>         0.5850 
     16 C16        37.8635   34.8735   29.3441 C.2       1 <0>         0.0850 
     17 C17        37.4189   35.7872   32.0018 C.ar      1 <0>        -0.1150 
     18 C18        39.0598   37.5739   31.5420 C.ar      1 <0>        -0.1150 
     19 C19        38.3257   36.4310   31.1224 C.ar      1 <0>         0.0850 
     20 C20        39.9866   38.2858   30.5445 C.3       1 <0>         0.0550 
     21 C21        41.4943   38.0968   30.8064 C.3       1 <0>         0.2050 
     22 N1         41.9603   40.0587   29.3510 N.4       1 <0>        -0.1000 
     23 O1         36.5386   35.6171   34.2705 O.3       1 <0>        -0.5850 
     24 O2         39.5923   39.1241   33.3355 O.3       1 <0>        -0.5850 
     25 O3         41.9287   38.8104   31.9468 O.3       1 <0>        -0.6830 
     26 O4         35.7396   34.0457   32.0816 O.2       1 <0>        -0.4700 
     27 O5         38.5483   35.9517   29.8481 O.3       1 <0>        -0.1700 
     28 Cl1        39.0370   36.9233   27.2253 Cl        1 <0>        -0.1800 
     29 H1         42.6547   40.1855   27.3412 H         1 <0>         0.0600 
     30 H2         42.6071   41.7282   28.2037 H         1 <0>         0.0600 
     31 H3         43.8732   40.5583   28.5672 H         1 <0>         0.0600 
     32 H4         38.3343   31.4355   26.2494 H         1 <0>         0.1150 
     33 H5         39.1903   32.9390   24.4819 H         1 <0>         0.1150 
     34 H6         37.7789   32.2985   28.4642 H         1 <0>         0.1150 
     35 H7         39.4740   35.3668   24.9498 H         1 <0>         0.1150 
     36 H8         38.0114   37.6798   34.7940 H         1 <0>         0.1150 
     37 H9         36.3981   33.3848   29.7072 H         1 <0>         0.1150 
     38 H10        39.8098   40.3850   31.1356 H         1 <0>         0.0600 
     39 H11        38.5930   39.8557   29.9992 H         1 <0>         0.0600 
     40 H12        40.2281   39.7741   28.1640 H         1 <0>         0.0600 
     41 H13        40.3197   41.3397   28.9436 H         1 <0>         0.0600 
     42 H14        42.0804   38.0410   28.7135 H         1 <0>         0.0600 
     43 H15        43.3628   38.5300   29.7999 H         1 <0>         0.0600 
     44 H16        39.8276   37.8025   29.5892 H         1 <0>         0.0600 
     45 H17        41.7131   37.0387   30.9516 H         1 <0>         0.0600 
     46 H18        42.1686   40.5331   30.2196 H         1 <0>         0.2900 
     47 H19        36.7968   35.7510   35.1712 H         1 <0>         0.4350 
     48 H20        39.2564   39.4472   34.1632 H         1 <0>         0.4350 
     49 H21        41.2024   38.8392   32.5662 H         1 <0>         0.4180 
@<TRIPOS>BOND
     1    1   22 1    
     2    1   29 1    
     3    1   30 1    
     4    1   31 1    
     5    2    3 ar   
     6    2    4 ar   
     7    2   32 1    
     8    3    5 ar   
     9    3   33 1    
    10    4   11 ar   
    11    4   34 1    
    12    5   12 ar   
    13    5   35 1    
    14    6   13 ar   
    15    6   14 ar   
    16    6   36 1    
    17    7   15 1    
    18    7   16 2    
    19    7   37 1    
    20    8    9 1    
    21    8   20 1    
    22    8   38 1    
    23    8   39 1    
    24    9   22 1    
    25    9   40 1    
    26    9   41 1    
    27   10   21 1    
    28   10   22 1    
    29   10   42 1    
    30   10   43 1    
    31   11   12 ar   
    32   11   16 1    
    33   12   28 1    
    34   13   17 ar   
    35   13   23 1    
    36   14   18 ar   
    37   14   24 1    
    38   15   17 1    
    39   15   26 2    
    40   16   27 1    
    41   17   19 ar   
    42   18   19 ar   
    43   18   20 1    
    44   19   27 1    
    45   20   21 1    
    46   20   44 1    
    47   21   25 1    
    48   21   45 1    
    49   22   46 1    
    50   23   47 1    
    51   24   48 1    
    52   25   49 1    
@<TRIPOS>SUBSTRUCTURE
     1 <0>         1 GROUP             0       ****    0 ROOT    
@<TRIPOS>MOLECULE
pygm-ligand
49   52    1
SMALL
USER_CHARGES


@<TRIPOS>ATOM
      1 C1         42.8653   40.6416   28.3188 C.3       1 <0>         0.0900 
      2 C2         38.4577   32.4845   26.4469 C.ar      1 <0>        -0.1150 
      3 C3         38.9365   33.3402   25.4446 C.ar      1 <0>        -0.1150 
      4 C4         38.1379   32.9916   27.7166 C.ar      1 <0>        -0.1150 
      5 C5         39.0984   34.7090   25.7156 C.ar      1 <0>        -0.1150 
      6 C6         38.0817   37.3513   33.7583 C.ar      1 <0>        -0.1150 
      7 C7         36.9382   34.2357   30.0820 C.2       1 <0>        -0.1150 
      8 C8         39.6689   39.7368   30.2247 C.3       1 <0>        -0.1200 
      9 C9         40.5483   40.2446   29.0665 C.3       1 <0>         0.1500 
     10 C10        42.3336   38.6200   29.6307 C.3       1 <0>         0.1500 
     11 C11        38.2752   34.3714   28.0016 C.ar      1 <0>         0.0000 
     12 C12        38.7806   35.2299   26.9858 C.ar      1 <0>         0.1800 
     13 C13        37.3383   36.2351   33.3389 C.ar      1 <0>         0.1500 
     14 C14        38.9200   38.0329   32.8626 C.ar      1 <0>         0.1500 
     15 C15        36.6269   34.6363   31.4550 C.2       1 <0>         0.5850 
     16 C16        37.8714   34.8662   29.3402 C.2       1 <0>         0.0850 
     17 C17        37.4293   35.7810   31.9956 C.ar      1 <0>        -0.1150 
     18 C18        39.0743   37.5657   31.5348 C.ar      1 <0>        -0.1150 
     19 C19        38.3429   36.4194   31.1181 C.ar      1 <0>         0.0850 
     20 C20        40.0125   38.2691   30.5401 C.3       1 <0>         0.0550 
     21 C21        41.5180   38.0934   30.8253 C.3       1 <0>         0.2050 
     22 N1         41.9939   40.0414   29.3530 N.4       1 <0>        -0.1000 
     23 O1         36.5390   35.6230   34.2619 O.3       1 <0>        -0.5850 
     24 O2         39.5745   39.1412   33.3170 O.3       1 <0>        -0.5850 
     25 O3         41.9345   38.8197   31.9629 O.3       1 <0>        -0.6830 
     26 O4         35.7507   34.0402   32.0816 O.2       1 <0>        -0.4700 
     27 O5         38.5745   35.9287   29.8504 O.3       1 <0>        -0.1700 
     28 Cl1        39.0291   36.9222   27.2258 Cl        1 <0>        -0.1800 
     29 H1         42.7205   40.1526   27.3546 H         1 <0>         0.0600 
     30 H2         42.6498   41.7041   28.1982 H         1 <0>         0.0600 
     31 H3         43.9164   40.5480   28.5944 H         1 <0>         0.0600 
     32 H4         38.3400   31.4358   26.2423 H         1 <0>         0.1150 
     33 H5         39.1945   32.9357   24.4805 H         1 <0>         0.1150 
     34 H6         37.7907   32.2933   28.4640 H         1 <0>         0.1150 
     35 H7         39.4694   35.3686   24.9455 H         1 <0>         0.1150 
     36 H8         37.9924   37.7001   34.7764 H         1 <0>         0.1150 
     37 H9         36.3867   33.3947   29.6931 H         1 <0>         0.1150 
     38 H10        39.8078   40.3738   31.0976 H         1 <0>         0.0600 
     39 H11        38.6180   39.8201   29.9457 H         1 <0>         0.0600 
     40 H12        40.2839   39.7279   28.1415 H         1 <0>         0.0600 
     41 H13        40.3491   41.3048   28.8995 H         1 <0>         0.0600 
     42 H14        42.1377   38.0147   28.7427 H         1 <0>         0.0600 
     43 H15        43.4007   38.5284   29.8416 H         1 <0>         0.0600 
     44 H16        39.8718   37.7676   29.5905 H         1 <0>         0.0600 
     45 H17        41.7424   37.0381   30.9837 H         1 <0>         0.0600 
     46 H18        42.1833   40.5263   30.2209 H         1 <0>         0.2900 
     47 H19        36.7522   35.8130   35.1622 H         1 <0>         0.4350 
     48 H20        39.1941   39.4986   34.1083 H         1 <0>         0.4350 
     49 H21        41.2078   38.8326   32.5814 H         1 <0>         0.4180 
@<TRIPOS>BOND
     1    1   22 1    
     2    1   29 1    
     3    1   30 1    
     4    1   31 1    
     5    2    3 ar   
     6    2    4 ar   
     7    2   32 1    
     8    3    5 ar   
     9    3   33 1    
    10    4   11 ar   
    11    4   34 1    
    12    5   12 ar   
    13    5   35 1    
    14    6   13 ar   
    15    6   14 ar   
    16    6   36 1    
    17    7   15 1    
    18    7   16 2    
    19    7   37 1    
    20    8    9 1    
    21    8   20 1    
    22    8   38 1    
    23    8   39 1    
    24    9   22 1    
    25    9   40 1    
    26    9   41 1    
    27   10   21 1    
    28   10   22 1    
    29   10   42 1    
    30   10   43 1    
    31   11   12 ar   
    32   11   16 1    
    33   12   28 1    
    34   13   17 ar   
    35   13   23 1    
    36   14   18 ar   
    37   14   24 1    
    38   15   17 1    
    39   15   26 2    
    40   16   27 1    
    41   17   19 ar   
    42   18   19 ar   
    43   18   20 1    
    44   19   27 1    
    45   20   21 1    
    46   20   44 1    
    47   21   25 1    
    48   21   45 1    
    49   22   46 1    
    50   23   47 1    
    51   24   48 1    
    52   25   49 1    
@<TRIPOS>SUBSTRUCTURE
     1 <0>         1 GROUP             0       ****    0 ROOT    
