@<TRIPOS>MOLECULE
pyrd-ligand
42   45    1
SMALL
USER_CHARGES


@<TRIPOS>ATOM
      1 C1         50.0496   43.3746   -5.4043 C.3       1 <0>        -0.0650 
      2 C2         56.4580   48.6336   -1.4368 C.ar      1 <0>        -0.1150 
      3 C3         55.9504   47.8623   -0.3767 C.ar      1 <0>        -0.1150 
      4 C4         55.8530   48.5538   -2.7033 C.ar      1 <0>        -0.1150 
      5 C5         54.8433   47.0155   -0.5745 C.ar      1 <0>        -0.1150 
      6 C6         54.7477   47.7043   -2.9023 C.ar      1 <0>        -0.1150 
      7 C7         52.0288   45.8006   -1.2735 C.ar      1 <0>        -0.1150 
      8 C8         53.3266   45.0435   -3.1734 C.ar      1 <0>        -0.1150 
      9 C9         51.0732   44.7886   -1.5271 C.ar      1 <0>        -0.1150 
     10 C10        52.3853   44.0284   -3.4164 C.ar      1 <0>        -0.1150 
     11 C11        47.6391   39.4998   -0.7271 C.ar      1 <0>        -0.0433 
     12 C12        48.6531   40.4661   -0.7046 C.ar      1 <0>        -0.4407 
     13 C13        47.5056   39.6704   -3.1360 C.ar      1 <0>        -0.1673 
     14 C14        49.7521   42.5041   -4.1819 C.ar      1 <0>        -0.4029 
     15 C15        54.2386   46.9149   -1.8455 C.ar      1 <0>         0.0000 
     16 C16        53.1717   45.9333   -2.0958 C.ar      1 <0>         0.0000 
     17 C17        51.2370   43.8949   -2.6161 C.ar      1 <0>         0.0000 
     18 C18        47.0626   39.0998   -1.9354 C.ar      1 <0>         0.1694 
     19 C19        49.0663   41.0999   -1.8937 C.ar      1 <0>         0.7341 
     20 C20        48.4854   40.6998   -3.1257 C.ar      1 <0>        -0.1736 
     21 C21        48.8597   41.4032   -4.3003 C.ar      1 <0>         0.0661 
     22 C22        50.2803   42.8082   -2.8992 C.ar      1 <0>         0.4855 
     23 C23        48.2717   41.0423   -5.6343 C.2       1 <0>         0.7150 
     24 N1         49.9517   42.1037   -1.8016 N.ar      1 <0>        -0.7311 
     25 O1         49.0531   40.6998   -6.5428 O.co2     1 <0>        -0.8000 
     26 O2         47.0351   41.0751   -5.8164 O.co2     1 <0>        -0.8000 
     27 F1         46.0521   38.2059   -1.9281 F         1 <0>        -0.2200 
     28 H1         49.1162   43.6677   -5.8845 H         1 <0>         0.0600 
     29 H2         50.5648   44.2996   -5.1696 H         1 <0>         0.0600 
     30 H3         50.6529   42.8335   -6.1331 H         1 <0>         0.0600 
     31 H4         57.3175   49.2693   -1.2786 H         1 <0>         0.1150 
     32 H5         56.4322   47.9015    0.5837 H         1 <0>         0.1150 
     33 H6         56.2460   49.1257   -3.5302 H         1 <0>         0.1150 
     34 H7         54.4863   46.4081    0.2446 H         1 <0>         0.1150 
     35 H8         54.3050   47.6366   -3.8860 H         1 <0>         0.1150 
     36 H9         51.8874   46.4675   -0.4355 H         1 <0>         0.1150 
     37 H10        54.2019   45.1045   -3.8036 H         1 <0>         0.1150 
     38 H11        50.2072   44.7029   -0.8865 H         1 <0>         0.1150 
     39 H12        52.5516   43.3196   -4.2139 H         1 <0>         0.1150 
     40 H13        47.2826   39.0713    0.1836 H         1 <0>         0.1388 
     41 H14        49.0830   40.7714    0.2353 H         1 <0>         0.2022 
     42 H15        47.0298   39.3413   -4.0468 H         1 <0>         0.1528 
@<TRIPOS>BOND
     1    1   14 1    
     2    1   28 1    
     3    1   29 1    
     4    1   30 1    
     5    2    3 ar   
     6    2    4 ar   
     7    2   31 1    
     8    3    5 ar   
     9    3   32 1    
    10    4    6 ar   
    11    4   33 1    
    12    5   15 ar   
    13    5   34 1    
    14    6   15 ar   
    15    6   35 1    
    16    7    9 ar   
    17    7   16 ar   
    18    7   36 1    
    19    8   10 ar   
    20    8   16 ar   
    21    8   37 1    
    22    9   17 ar   
    23    9   38 1    
    24   10   17 ar   
    25   10   39 1    
    26   11   12 ar   
    27   11   18 ar   
    28   11   40 1    
    29   12   19 ar   
    30   12   41 1    
    31   13   18 ar   
    32   13   20 ar   
    33   13   42 1    
    34   14   21 ar   
    35   14   22 ar   
    36   15   16 1    
    37   17   22 1    
    38   18   27 1    
    39   19   20 ar   
    40   19   24 ar   
    41   20   21 ar   
    42   21   23 1    
    43   22   24 ar   
    44   23   25 1    
    45   23   26 2    
@<TRIPOS>SUBSTRUCTURE
     1 <0>         1 GROUP             0       ****    0 ROOT    
@<TRIPOS>MOLECULE
pyrd-ligand
42   45    1
SMALL
USER_CHARGES


@<TRIPOS>ATOM
      1 C1         50.0491   43.3745   -5.4031 C.3       1 <0>        -0.0650 
      2 C2         56.4592   48.6347   -1.4351 C.ar      1 <0>        -0.1150 
      3 C3         55.8531   48.5575   -2.7010 C.ar      1 <0>        -0.1150 
      4 C4         55.9532   47.8607   -0.3762 C.ar      1 <0>        -0.1150 
      5 C5         54.7482   47.7069   -2.9006 C.ar      1 <0>        -0.1150 
      6 C6         54.8466   47.0133   -0.5745 C.ar      1 <0>        -0.1150 
      7 C7         52.0304   45.8001   -1.2718 C.ar      1 <0>        -0.1150 
      8 C8         53.3256   45.0447   -3.1738 C.ar      1 <0>        -0.1150 
      9 C9         51.0741   44.7884   -1.5251 C.ar      1 <0>        -0.1150 
     10 C10        52.3840   44.0296   -3.4164 C.ar      1 <0>        -0.1150 
     11 C11        47.6382   39.4998   -0.7267 C.ar      1 <0>        -0.0433 
     12 C12        48.6531   40.4652   -0.7039 C.ar      1 <0>        -0.4407 
     13 C13        47.5039   39.6705   -3.1355 C.ar      1 <0>        -0.1673 
     14 C14        49.7513   42.5039   -4.1807 C.ar      1 <0>        -0.4029 
     15 C15        54.2404   46.9148   -1.8449 C.ar      1 <0>         0.0000 
     16 C16        53.1726   45.9336   -2.0951 C.ar      1 <0>         0.0000 
     17 C17        51.2368   43.8950   -2.6148 C.ar      1 <0>         0.0000 
     18 C18        47.0612   39.0999   -1.9347 C.ar      1 <0>         0.1694 
     19 C19        49.0646   41.0998   -1.8930 C.ar      1 <0>         0.7341 
     20 C20        48.4838   40.6998   -3.1251 C.ar      1 <0>        -0.1736 
     21 C21        48.8587   41.4032   -4.2993 C.ar      1 <0>         0.0661 
     22 C22        50.2795   42.8083   -2.8980 C.ar      1 <0>         0.4855 
     23 C23        48.2713   41.0422   -5.6336 C.2       1 <0>         0.7150 
     24 N1         49.9503   42.1037   -1.8007 N.ar      1 <0>        -0.7311 
     25 O1         49.0531   40.6999   -6.5418 O.co2     1 <0>        -0.8000 
     26 O2         47.0348   41.0752   -5.8164 O.co2     1 <0>        -0.8000 
     27 F1         46.0509   38.2057   -1.9270 F         1 <0>        -0.2200 
     28 H1         49.1160   43.6667   -5.8841 H         1 <0>         0.0600 
     29 H2         50.5630   44.2998   -5.1675 H         1 <0>         0.0600 
     30 H3         50.6530   42.8341   -6.1316 H         1 <0>         0.0600 
     31 H4         57.3181   49.2713   -1.2760 H         1 <0>         0.1150 
     32 H5         56.2439   49.1339   -3.5262 H         1 <0>         0.1150 
     33 H6         56.4359   47.8999    0.5836 H         1 <0>         0.1150 
     34 H7         54.3039   47.6415   -3.8837 H         1 <0>         0.1150 
     35 H8         54.4907   46.4044    0.2441 H         1 <0>         0.1150 
     36 H9         51.8899   46.4661   -0.4330 H         1 <0>         0.1150 
     37 H10        54.1999   45.1068   -3.8054 H         1 <0>         0.1150 
     38 H11        50.2089   44.7020   -0.8837 H         1 <0>         0.1150 
     39 H12        52.5488   43.3227   -4.2162 H         1 <0>         0.1150 
     40 H13        47.2820   39.0709    0.1836 H         1 <0>         0.1388 
     41 H14        49.0838   40.7695    0.2360 H         1 <0>         0.2022 
     42 H15        47.0277   39.3416   -4.0460 H         1 <0>         0.1528 
@<TRIPOS>BOND
     1    1   14 1    
     2    1   28 1    
     3    1   29 1    
     4    1   30 1    
     5    2    3 ar   
     6    2    4 ar   
     7    2   31 1    
     8    3    5 ar   
     9    3   32 1    
    10    4    6 ar   
    11    4   33 1    
    12    5   15 ar   
    13    5   34 1    
    14    6   15 ar   
    15    6   35 1    
    16    7    9 ar   
    17    7   16 ar   
    18    7   36 1    
    19    8   10 ar   
    20    8   16 ar   
    21    8   37 1    
    22    9   17 ar   
    23    9   38 1    
    24   10   17 ar   
    25   10   39 1    
    26   11   12 ar   
    27   11   18 ar   
    28   11   40 1    
    29   12   19 ar   
    30   12   41 1    
    31   13   18 ar   
    32   13   20 ar   
    33   13   42 1    
    34   14   21 ar   
    35   14   22 ar   
    36   15   16 1    
    37   17   22 1    
    38   18   27 1    
    39   19   20 ar   
    40   19   24 ar   
    41   20   21 ar   
    42   21   23 1    
    43   22   24 ar   
    44   23   25 1    
    45   23   26 2    
@<TRIPOS>SUBSTRUCTURE
     1 <0>         1 GROUP             0       ****    0 ROOT    
@<TRIPOS>MOLECULE
pyrd-ligand
42   45    1
SMALL
USER_CHARGES


@<TRIPOS>ATOM
      1 C1         50.0490   43.3745   -5.4032 C.3       1 <0>        -0.0650 
      2 C2         56.4594   48.6345   -1.4352 C.ar      1 <0>        -0.1150 
      3 C3         55.9539   47.8604   -0.3761 C.ar      1 <0>        -0.1150 
      4 C4         55.8531   48.5568   -2.7010 C.ar      1 <0>        -0.1150 
      5 C5         54.8476   47.0127   -0.5741 C.ar      1 <0>        -0.1150 
      6 C6         54.7484   47.7059   -2.9002 C.ar      1 <0>        -0.1150 
      7 C7         53.3264   45.0435   -3.1735 C.ar      1 <0>        -0.1150 
      8 C8         52.0308   45.7998   -1.2721 C.ar      1 <0>        -0.1150 
      9 C9         52.3844   44.0289   -3.4164 C.ar      1 <0>        -0.1150 
     10 C10        51.0743   44.7884   -1.5255 C.ar      1 <0>        -0.1150 
     11 C11        47.6382   39.4998   -0.7267 C.ar      1 <0>        -0.0433 
     12 C12        48.6531   40.4651   -0.7040 C.ar      1 <0>        -0.4407 
     13 C13        47.5037   39.6705   -3.1355 C.ar      1 <0>        -0.1673 
     14 C14        49.7512   42.5038   -4.1808 C.ar      1 <0>        -0.4029 
     15 C15        54.2411   46.9138   -1.8443 C.ar      1 <0>         0.0000 
     16 C16        53.1736   45.9323   -2.0947 C.ar      1 <0>         0.0000 
     17 C17        51.2368   43.8949   -2.6152 C.ar      1 <0>         0.0000 
     18 C18        47.0609   39.0999   -1.9347 C.ar      1 <0>         0.1694 
     19 C19        49.0645   41.0998   -1.8931 C.ar      1 <0>         0.7341 
     20 C20        48.4836   40.6998   -3.1251 C.ar      1 <0>        -0.1736 
     21 C21        48.8586   41.4032   -4.2994 C.ar      1 <0>         0.0661 
     22 C22        50.2795   42.8082   -2.8982 C.ar      1 <0>         0.4855 
     23 C23        48.2712   41.0421   -5.6336 C.2       1 <0>         0.7150 
     24 N1         49.9502   42.1036   -1.8008 N.ar      1 <0>        -0.7311 
     25 O1         49.0531   40.6999   -6.5418 O.co2     1 <0>        -0.8000 
     26 O2         47.0347   41.0749   -5.8164 O.co2     1 <0>        -0.8000 
     27 F1         46.0506   38.2058   -1.9269 F         1 <0>        -0.2200 
     28 H1         49.1159   43.6667   -5.8842 H         1 <0>         0.0600 
     29 H2         50.5629   44.2998   -5.1675 H         1 <0>         0.0600 
     30 H3         50.6530   42.8342   -6.1317 H         1 <0>         0.0600 
     31 H4         57.3182   49.2713   -1.2765 H         1 <0>         0.1150 
     32 H5         56.4368   47.8999    0.5836 H         1 <0>         0.1150 
     33 H6         56.2435   49.1333   -3.5263 H         1 <0>         0.1150 
     34 H7         54.4920   46.4038    0.2446 H         1 <0>         0.1150 
     35 H8         54.3039   47.6402   -3.8833 H         1 <0>         0.1150 
     36 H9         54.2011   45.1051   -3.8044 H         1 <0>         0.1150 
     37 H10        51.8901   46.4660   -0.4334 H         1 <0>         0.1150 
     38 H11        52.5494   43.3214   -4.2156 H         1 <0>         0.1150 
     39 H12        50.2089   44.7023   -0.8844 H         1 <0>         0.1150 
     40 H13        47.2820   39.0709    0.1836 H         1 <0>         0.1388 
     41 H14        49.0839   40.7693    0.2359 H         1 <0>         0.2022 
     42 H15        47.0274   39.3417   -4.0459 H         1 <0>         0.1528 
@<TRIPOS>BOND
     1    1   14 1    
     2    1   28 1    
     3    1   29 1    
     4    1   30 1    
     5    2    3 ar   
     6    2    4 ar   
     7    2   31 1    
     8    3    5 ar   
     9    3   32 1    
    10    4    6 ar   
    11    4   33 1    
    12    5   15 ar   
    13    5   34 1    
    14    6   15 ar   
    15    6   35 1    
    16    7    9 ar   
    17    7   16 ar   
    18    7   36 1    
    19    8   10 ar   
    20    8   16 ar   
    21    8   37 1    
    22    9   17 ar   
    23    9   38 1    
    24   10   17 ar   
    25   10   39 1    
    26   11   12 ar   
    27   11   18 ar   
    28   11   40 1    
    29   12   19 ar   
    30   12   41 1    
    31   13   18 ar   
    32   13   20 ar   
    33   13   42 1    
    34   14   21 ar   
    35   14   22 ar   
    36   15   16 1    
    37   17   22 1    
    38   18   27 1    
    39   19   20 ar   
    40   19   24 ar   
    41   20   21 ar   
    42   21   23 1    
    43   22   24 ar   
    44   23   25 1    
    45   23   26 2    
@<TRIPOS>SUBSTRUCTURE
     1 <0>         1 GROUP             0       ****    0 ROOT    
@<TRIPOS>MOLECULE
pyrd-ligand
42   45    1
SMALL
USER_CHARGES


@<TRIPOS>ATOM
      1 C1         50.0490   43.3745   -5.4032 C.3       1 <0>        -0.0650 
      2 C2         56.4591   48.6344   -1.4352 C.ar      1 <0>        -0.1150 
      3 C3         55.9532   47.8605   -0.3763 C.ar      1 <0>        -0.1150 
      4 C4         55.8531   48.5569   -2.7012 C.ar      1 <0>        -0.1150 
      5 C5         54.8467   47.0129   -0.5746 C.ar      1 <0>        -0.1150 
      6 C6         54.7484   47.7061   -2.9008 C.ar      1 <0>        -0.1150 
      7 C7         52.0303   45.8000   -1.2727 C.ar      1 <0>        -0.1150 
      8 C8         53.3261   45.0437   -3.1740 C.ar      1 <0>        -0.1150 
      9 C9         51.0740   44.7884   -1.5260 C.ar      1 <0>        -0.1150 
     10 C10        52.3845   44.0286   -3.4164 C.ar      1 <0>        -0.1150 
     11 C11        47.6383   39.4993   -0.7267 C.ar      1 <0>        -0.0433 
     12 C12        48.6531   40.4648   -0.7040 C.ar      1 <0>        -0.4407 
     13 C13        47.5033   39.6706   -3.1354 C.ar      1 <0>        -0.1673 
     14 C14        49.7511   42.5037   -4.1809 C.ar      1 <0>        -0.4029 
     15 C15        54.2406   46.9141   -1.8450 C.ar      1 <0>         0.0000 
     16 C16        53.1728   45.9330   -2.0956 C.ar      1 <0>         0.0000 
     17 C17        51.2368   43.8946   -2.6154 C.ar      1 <0>         0.0000 
     18 C18        47.0607   39.0999   -1.9347 C.ar      1 <0>         0.1694 
     19 C19        49.0643   41.0999   -1.8931 C.ar      1 <0>         0.7341 
     20 C20        48.4833   40.6998   -3.1251 C.ar      1 <0>        -0.1736 
     21 C21        48.8584   41.4031   -4.2994 C.ar      1 <0>         0.0661 
     22 C22        50.2794   42.8081   -2.8982 C.ar      1 <0>         0.4855 
     23 C23        48.2711   41.0421   -5.6337 C.2       1 <0>         0.7150 
     24 N1         49.9501   42.1036   -1.8008 N.ar      1 <0>        -0.7311 
     25 O1         47.0346   41.0742   -5.8164 O.co2     1 <0>        -0.8000 
     26 O2         49.0531   40.6999   -6.5418 O.co2     1 <0>        -0.8000 
     27 F1         46.0503   38.2059   -1.9268 F         1 <0>        -0.2200 
     28 H1         49.1159   43.6665   -5.8843 H         1 <0>         0.0600 
     29 H2         50.5627   44.2998   -5.1674 H         1 <0>         0.0600 
     30 H3         50.6531   42.8341   -6.1317 H         1 <0>         0.0600 
     31 H4         57.3178   49.2712   -1.2762 H         1 <0>         0.1150 
     32 H5         56.4357   47.8998    0.5836 H         1 <0>         0.1150 
     33 H6         56.2438   49.1334   -3.5263 H         1 <0>         0.1150 
     34 H7         54.4908   46.4040    0.2440 H         1 <0>         0.1150 
     35 H8         54.3041   47.6406   -3.8840 H         1 <0>         0.1150 
     36 H9         51.8896   46.4662   -0.4341 H         1 <0>         0.1150 
     37 H10        54.2006   45.1054   -3.8052 H         1 <0>         0.1150 
     38 H11        50.2085   44.7023   -0.8848 H         1 <0>         0.1150 
     39 H12        52.5497   43.3209   -4.2153 H         1 <0>         0.1150 
     40 H13        47.2824   39.0701    0.1836 H         1 <0>         0.1388 
     41 H14        49.0841   40.7689    0.2358 H         1 <0>         0.2022 
     42 H15        47.0269   39.3418   -4.0458 H         1 <0>         0.1528 
@<TRIPOS>BOND
     1    1   14 1    
     2    1   28 1    
     3    1   29 1    
     4    1   30 1    
     5    2    3 ar   
     6    2    4 ar   
     7    2   31 1    
     8    3    5 ar   
     9    3   32 1    
    10    4    6 ar   
    11    4   33 1    
    12    5   15 ar   
    13    5   34 1    
    14    6   15 ar   
    15    6   35 1    
    16    7    9 ar   
    17    7   16 ar   
    18    7   36 1    
    19    8   10 ar   
    20    8   16 ar   
    21    8   37 1    
    22    9   17 ar   
    23    9   38 1    
    24   10   17 ar   
    25   10   39 1    
    26   11   12 ar   
    27   11   18 ar   
    28   11   40 1    
    29   12   19 ar   
    30   12   41 1    
    31   13   18 ar   
    32   13   20 ar   
    33   13   42 1    
    34   14   21 ar   
    35   14   22 ar   
    36   15   16 1    
    37   17   22 1    
    38   18   27 1    
    39   19   20 ar   
    40   19   24 ar   
    41   20   21 ar   
    42   21   23 1    
    43   22   24 ar   
    44   23   25 1    
    45   23   26 2    
@<TRIPOS>SUBSTRUCTURE
     1 <0>         1 GROUP             0       ****    0 ROOT    
@<TRIPOS>MOLECULE
pyrd-ligand
42   45    1
SMALL
USER_CHARGES


@<TRIPOS>ATOM
      1 C1         50.0492   43.3746   -5.4033 C.3       1 <0>        -0.0650 
      2 C2         56.4592   48.6350   -1.4350 C.ar      1 <0>        -0.1150 
      3 C3         55.8531   48.5576   -2.7010 C.ar      1 <0>        -0.1150 
      4 C4         55.9536   47.8606   -0.3762 C.ar      1 <0>        -0.1150 
      5 C5         54.7487   47.7064   -2.9006 C.ar      1 <0>        -0.1150 
      6 C6         54.8474   47.0127   -0.5746 C.ar      1 <0>        -0.1150 
      7 C7         53.3266   45.0435   -3.1739 C.ar      1 <0>        -0.1150 
      8 C8         52.0311   45.7998   -1.2725 C.ar      1 <0>        -0.1150 
      9 C9         52.3847   44.0287   -3.4164 C.ar      1 <0>        -0.1150 
     10 C10        51.0745   44.7885   -1.5258 C.ar      1 <0>        -0.1150 
     11 C11        47.6383   39.4998   -0.7268 C.ar      1 <0>        -0.0433 
     12 C12        48.6531   40.4653   -0.7040 C.ar      1 <0>        -0.4407 
     13 C13        47.5040   39.6705   -3.1356 C.ar      1 <0>        -0.1673 
     14 C14        49.7514   42.5038   -4.1810 C.ar      1 <0>        -0.4029 
     15 C15        54.2413   46.9140   -1.8451 C.ar      1 <0>         0.0000 
     16 C16        53.1738   45.9324   -2.0952 C.ar      1 <0>         0.0000 
     17 C17        51.2370   43.8949   -2.6154 C.ar      1 <0>         0.0000 
     18 C18        47.0613   39.0998   -1.9348 C.ar      1 <0>         0.1694 
     19 C19        49.0647   41.0999   -1.8932 C.ar      1 <0>         0.7341 
     20 C20        48.4838   40.6998   -3.1252 C.ar      1 <0>        -0.1736 
     21 C21        48.8587   41.4032   -4.2995 C.ar      1 <0>         0.0661 
     22 C22        50.2797   42.8082   -2.8983 C.ar      1 <0>         0.4855 
     23 C23        48.2713   41.0422   -5.6337 C.2       1 <0>         0.7150 
     24 N1         49.9504   42.1036   -1.8009 N.ar      1 <0>        -0.7311 
     25 O1         49.0531   40.6999   -6.5419 O.co2     1 <0>        -0.8000 
     26 O2         47.0348   41.0751   -5.8164 O.co2     1 <0>        -0.8000 
     27 F1         46.0510   38.2057   -1.9270 F         1 <0>        -0.2200 
     28 H1         49.1162   43.6669   -5.8843 H         1 <0>         0.0600 
     29 H2         50.5633   44.2998   -5.1677 H         1 <0>         0.0600 
     30 H3         50.6530   42.8341   -6.1319 H         1 <0>         0.0600 
     31 H4         57.3177   49.2720   -1.2759 H         1 <0>         0.1150 
     32 H5         56.2436   49.1344   -3.5260 H         1 <0>         0.1150 
     33 H6         56.4362   47.8998    0.5836 H         1 <0>         0.1150 
     34 H7         54.3044   47.6409   -3.8838 H         1 <0>         0.1150 
     35 H8         54.4918   46.4035    0.2439 H         1 <0>         0.1150 
     36 H9         54.2010   45.1052   -3.8053 H         1 <0>         0.1150 
     37 H10        51.8904   46.4661   -0.4339 H         1 <0>         0.1150 
     38 H11        52.5496   43.3213   -4.2157 H         1 <0>         0.1150 
     39 H12        50.2091   44.7025   -0.8846 H         1 <0>         0.1150 
     40 H13        47.2821   39.0710    0.1836 H         1 <0>         0.1388 
     41 H14        49.0838   40.7696    0.2358 H         1 <0>         0.2022 
     42 H15        47.0277   39.3416   -4.0460 H         1 <0>         0.1528 
@<TRIPOS>BOND
     1    1   14 1    
     2    1   28 1    
     3    1   29 1    
     4    1   30 1    
     5    2    3 ar   
     6    2    4 ar   
     7    2   31 1    
     8    3    5 ar   
     9    3   32 1    
    10    4    6 ar   
    11    4   33 1    
    12    5   15 ar   
    13    5   34 1    
    14    6   15 ar   
    15    6   35 1    
    16    7    9 ar   
    17    7   16 ar   
    18    7   36 1    
    19    8   10 ar   
    20    8   16 ar   
    21    8   37 1    
    22    9   17 ar   
    23    9   38 1    
    24   10   17 ar   
    25   10   39 1    
    26   11   12 ar   
    27   11   18 ar   
    28   11   40 1    
    29   12   19 ar   
    30   12   41 1    
    31   13   18 ar   
    32   13   20 ar   
    33   13   42 1    
    34   14   21 ar   
    35   14   22 ar   
    36   15   16 1    
    37   17   22 1    
    38   18   27 1    
    39   19   20 ar   
    40   19   24 ar   
    41   20   21 ar   
    42   21   23 1    
    43   22   24 ar   
    44   23   25 1    
    45   23   26 2    
@<TRIPOS>SUBSTRUCTURE
     1 <0>         1 GROUP             0       ****    0 ROOT    
@<TRIPOS>MOLECULE
pyrd-ligand
42   45    1
SMALL
USER_CHARGES


@<TRIPOS>ATOM
      1 C1         50.0489   43.3744   -5.4035 C.3       1 <0>        -0.0650 
      2 C2         56.4591   48.6343   -1.4352 C.ar      1 <0>        -0.1150 
      3 C3         55.8531   48.5567   -2.7012 C.ar      1 <0>        -0.1150 
      4 C4         55.9533   47.8604   -0.3762 C.ar      1 <0>        -0.1150 
      5 C5         54.7485   47.7057   -2.9006 C.ar      1 <0>        -0.1150 
      6 C6         54.8469   47.0126   -0.5744 C.ar      1 <0>        -0.1150 
      7 C7         53.3264   45.0430   -3.1734 C.ar      1 <0>        -0.1150 
      8 C8         52.0304   45.7997   -1.2725 C.ar      1 <0>        -0.1150 
      9 C9         52.3845   44.0284   -3.4164 C.ar      1 <0>        -0.1150 
     10 C10        51.0739   44.7883   -1.5261 C.ar      1 <0>        -0.1150 
     11 C11        47.6381   39.4998   -0.7268 C.ar      1 <0>        -0.0433 
     12 C12        48.6531   40.4650   -0.7041 C.ar      1 <0>        -0.4407 
     13 C13        47.5033   39.6705   -3.1355 C.ar      1 <0>        -0.1673 
     14 C14        49.7510   42.5037   -4.1812 C.ar      1 <0>        -0.4029 
     15 C15        54.2408   46.9137   -1.8448 C.ar      1 <0>         0.0000 
     16 C16        53.1733   45.9321   -2.0949 C.ar      1 <0>         0.0000 
     17 C17        51.2365   43.8947   -2.6157 C.ar      1 <0>         0.0000 
     18 C18        47.0607   39.0999   -1.9347 C.ar      1 <0>         0.1694 
     19 C19        49.0643   41.0998   -1.8933 C.ar      1 <0>         0.7341 
     20 C20        48.4832   40.6998   -3.1253 C.ar      1 <0>        -0.1736 
     21 C21        48.8583   41.4031   -4.2996 C.ar      1 <0>         0.0661 
     22 C22        50.2793   42.8081   -2.8985 C.ar      1 <0>         0.4855 
     23 C23        48.2711   41.0419   -5.6338 C.2       1 <0>         0.7150 
     24 N1         49.9501   42.1035   -1.8011 N.ar      1 <0>        -0.7311 
     25 O1         47.0345   41.0738   -5.8164 O.co2     1 <0>        -0.8000 
     26 O2         49.0531   40.6999   -6.5420 O.co2     1 <0>        -0.8000 
     27 F1         46.0504   38.2057   -1.9267 F         1 <0>        -0.2200 
     28 H1         49.1159   43.6665   -5.8847 H         1 <0>         0.0600 
     29 H2         50.5627   44.2998   -5.1677 H         1 <0>         0.0600 
     30 H3         50.6531   42.8341   -6.1319 H         1 <0>         0.0600 
     31 H4         57.3178   49.2712   -1.2762 H         1 <0>         0.1150 
     32 H5         56.2437   49.1331   -3.5264 H         1 <0>         0.1150 
     33 H6         56.4359   47.8999    0.5836 H         1 <0>         0.1150 
     34 H7         54.3042   47.6400   -3.8838 H         1 <0>         0.1150 
     35 H8         54.4911   46.4038    0.2442 H         1 <0>         0.1150 
     36 H9         54.2012   45.1046   -3.8042 H         1 <0>         0.1150 
     37 H10        51.8896   46.4661   -0.4340 H         1 <0>         0.1150 
     38 H11        52.5494   43.3212   -4.2158 H         1 <0>         0.1150 
     39 H12        50.2083   44.7024   -0.8851 H         1 <0>         0.1150 
     40 H13        47.2820   39.0709    0.1836 H         1 <0>         0.1388 
     41 H14        49.0840   40.7693    0.2356 H         1 <0>         0.2022 
     42 H15        47.0269   39.3417   -4.0458 H         1 <0>         0.1528 
@<TRIPOS>BOND
     1    1   14 1    
     2    1   28 1    
     3    1   29 1    
     4    1   30 1    
     5    2    3 ar   
     6    2    4 ar   
     7    2   31 1    
     8    3    5 ar   
     9    3   32 1    
    10    4    6 ar   
    11    4   33 1    
    12    5   15 ar   
    13    5   34 1    
    14    6   15 ar   
    15    6   35 1    
    16    7    9 ar   
    17    7   16 ar   
    18    7   36 1    
    19    8   10 ar   
    20    8   16 ar   
    21    8   37 1    
    22    9   17 ar   
    23    9   38 1    
    24   10   17 ar   
    25   10   39 1    
    26   11   12 ar   
    27   11   18 ar   
    28   11   40 1    
    29   12   19 ar   
    30   12   41 1    
    31   13   18 ar   
    32   13   20 ar   
    33   13   42 1    
    34   14   21 ar   
    35   14   22 ar   
    36   15   16 1    
    37   17   22 1    
    38   18   27 1    
    39   19   20 ar   
    40   19   24 ar   
    41   20   21 ar   
    42   21   23 1    
    43   22   24 ar   
    44   23   25 1    
    45   23   26 2    
@<TRIPOS>SUBSTRUCTURE
     1 <0>         1 GROUP             0       ****    0 ROOT    
@<TRIPOS>MOLECULE
pyrd-ligand
42   45    1
SMALL
USER_CHARGES


@<TRIPOS>ATOM
      1 C1         50.0490   43.3745   -5.4037 C.3       1 <0>        -0.0650 
      2 C2         56.4588   48.6344   -1.4352 C.ar      1 <0>        -0.1150 
      3 C3         55.8531   48.5568   -2.7013 C.ar      1 <0>        -0.1150 
      4 C4         55.9527   47.8605   -0.3764 C.ar      1 <0>        -0.1150 
      5 C5         54.7485   47.7059   -2.9010 C.ar      1 <0>        -0.1150 
      6 C6         54.8463   47.0128   -0.5748 C.ar      1 <0>        -0.1150 
      7 C7         52.0298   45.8002   -1.2736 C.ar      1 <0>        -0.1150 
      8 C8         53.3270   45.0426   -3.1734 C.ar      1 <0>        -0.1150 
      9 C9         51.0735   44.7886   -1.5273 C.ar      1 <0>        -0.1150 
     10 C10        52.3853   44.0278   -3.4164 C.ar      1 <0>        -0.1150 
     11 C11        47.6381   39.4998   -0.7269 C.ar      1 <0>        -0.0433 
     12 C12        48.6531   40.4652   -0.7043 C.ar      1 <0>        -0.4407 
     13 C13        47.5033   39.6705   -3.1356 C.ar      1 <0>        -0.1673 
     14 C14        49.7511   42.5036   -4.1815 C.ar      1 <0>        -0.4029 
     15 C15        54.2405   46.9139   -1.8454 C.ar      1 <0>         0.0000 
     16 C16        53.1729   45.9326   -2.0957 C.ar      1 <0>         0.0000 
     17 C17        51.2369   43.8944   -2.6163 C.ar      1 <0>         0.0000 
     18 C18        47.0607   39.0999   -1.9347 C.ar      1 <0>         0.1694 
     19 C19        49.0644   41.0999   -1.8935 C.ar      1 <0>         0.7341 
     20 C20        48.4833   40.6998   -3.1254 C.ar      1 <0>        -0.1736 
     21 C21        48.8583   41.4030   -4.2998 C.ar      1 <0>         0.0661 
     22 C22        50.2795   42.8079   -2.8990 C.ar      1 <0>         0.4855 
     23 C23        48.2711   41.0418   -5.6340 C.2       1 <0>         0.7150 
     24 N1         49.9503   42.1035   -1.8014 N.ar      1 <0>        -0.7311 
     25 O1         47.0345   41.0736   -5.8164 O.co2     1 <0>        -0.8000 
     26 O2         49.0531   40.6999   -6.5422 O.co2     1 <0>        -0.8000 
     27 F1         46.0504   38.2058   -1.9268 F         1 <0>        -0.2200 
     28 H1         49.1160   43.6668   -5.8847 H         1 <0>         0.0600 
     29 H2         50.5630   44.2998   -5.1679 H         1 <0>         0.0600 
     30 H3         50.6529   42.8342   -6.1323 H         1 <0>         0.0600 
     31 H4         57.3175   49.2712   -1.2761 H         1 <0>         0.1150 
     32 H5         56.2440   49.1332   -3.5264 H         1 <0>         0.1150 
     33 H6         56.4351   47.8998    0.5836 H         1 <0>         0.1150 
     34 H7         54.3044   47.6402   -3.8843 H         1 <0>         0.1150 
     35 H8         54.4902   46.4040    0.2438 H         1 <0>         0.1150 
     36 H9         51.8884   46.4668   -0.4355 H         1 <0>         0.1150 
     37 H10        54.2024   45.1037   -3.8033 H         1 <0>         0.1150 
     38 H11        50.2076   44.7028   -0.8867 H         1 <0>         0.1150 
     39 H12        52.5510   43.3196   -4.2148 H         1 <0>         0.1150 
     40 H13        47.2821   39.0710    0.1836 H         1 <0>         0.1388 
     41 H14        49.0840   40.7694    0.2354 H         1 <0>         0.2022 
     42 H15        47.0269   39.3416   -4.0459 H         1 <0>         0.1528 
@<TRIPOS>BOND
     1    1   14 1    
     2    1   28 1    
     3    1   29 1    
     4    1   30 1    
     5    2    3 ar   
     6    2    4 ar   
     7    2   31 1    
     8    3    5 ar   
     9    3   32 1    
    10    4    6 ar   
    11    4   33 1    
    12    5   15 ar   
    13    5   34 1    
    14    6   15 ar   
    15    6   35 1    
    16    7    9 ar   
    17    7   16 ar   
    18    7   36 1    
    19    8   10 ar   
    20    8   16 ar   
    21    8   37 1    
    22    9   17 ar   
    23    9   38 1    
    24   10   17 ar   
    25   10   39 1    
    26   11   12 ar   
    27   11   18 ar   
    28   11   40 1    
    29   12   19 ar   
    30   12   41 1    
    31   13   18 ar   
    32   13   20 ar   
    33   13   42 1    
    34   14   21 ar   
    35   14   22 ar   
    36   15   16 1    
    37   17   22 1    
    38   18   27 1    
    39   19   20 ar   
    40   19   24 ar   
    41   20   21 ar   
    42   21   23 1    
    43   22   24 ar   
    44   23   25 1    
    45   23   26 2    
@<TRIPOS>SUBSTRUCTURE
     1 <0>         1 GROUP             0       ****    0 ROOT    
@<TRIPOS>MOLECULE
pyrd-ligand
42   45    1
SMALL
USER_CHARGES


@<TRIPOS>ATOM
      1 C1         50.0494   43.3732   -5.4035 C.3       1 <0>        -0.0650 
      2 C2         56.4505   48.6501   -1.4418 C.ar      1 <0>        -0.1150 
      3 C3         55.9391   47.8844   -0.3793 C.ar      1 <0>        -0.1150 
      4 C4         55.8529   48.5592   -2.7112 C.ar      1 <0>        -0.1150 
      5 C5         54.8361   47.0323   -0.5774 C.ar      1 <0>        -0.1150 
      6 C6         54.7518   47.7044   -2.9101 C.ar      1 <0>        -0.1150 
      7 C7         53.3276   45.0441   -3.1753 C.ar      1 <0>        -0.1150 
      8 C8         52.0304   45.8028   -1.2761 C.ar      1 <0>        -0.1150 
      9 C9         52.3865   44.0283   -3.4166 C.ar      1 <0>        -0.1150 
     10 C10        51.0750   44.7898   -1.5279 C.ar      1 <0>        -0.1150 
     11 C11        47.6404   39.4992   -0.7309 C.ar      1 <0>        -0.0433 
     12 C12        48.6548   40.4646   -0.7047 C.ar      1 <0>        -0.4407 
     13 C13        47.5048   39.6699   -3.1370 C.ar      1 <0>        -0.1673 
     14 C14        49.7522   42.5031   -4.1809 C.ar      1 <0>        -0.4029 
     15 C15        54.2384   46.9205   -1.8507 C.ar      1 <0>         0.0000 
     16 C16        53.1731   45.9357   -2.0987 C.ar      1 <0>         0.0000 
     17 C17        51.2384   43.8948   -2.6165 C.ar      1 <0>         0.0000 
     18 C18        47.0619   39.0998   -1.9369 C.ar      1 <0>         0.1694 
     19 C19        49.0669   41.0986   -1.8939 C.ar      1 <0>         0.7341 
     20 C20        48.4857   40.6982   -3.1258 C.ar      1 <0>        -0.1736 
     21 C21        48.8597   41.4026   -4.2994 C.ar      1 <0>         0.0661 
     22 C22        50.2809   42.8078   -2.8986 C.ar      1 <0>         0.4855 
     23 C23        48.2704   41.0433   -5.6333 C.2       1 <0>         0.7150 
     24 N1         49.9514   42.1030   -1.8013 N.ar      1 <0>        -0.7311 
     25 O1         47.0347   41.0766   -5.8161 O.co2     1 <0>        -0.8000 
     26 O2         49.0496   40.7010   -6.5431 O.co2     1 <0>        -0.8000 
     27 F1         46.0514   38.2058   -1.9276 F         1 <0>        -0.2200 
     28 H1         49.1167   43.6681   -5.8835 H         1 <0>         0.0600 
     29 H2         50.5662   44.2962   -5.1674 H         1 <0>         0.0600 
     30 H3         50.6526   42.8337   -6.1330 H         1 <0>         0.0600 
     31 H4         57.3064   49.2904   -1.2829 H         1 <0>         0.1150 
     32 H5         56.4140   47.9337    0.5834 H         1 <0>         0.1150 
     33 H6         56.2476   49.1297   -3.5388 H         1 <0>         0.1150 
     34 H7         54.4763   46.4304    0.2446 H         1 <0>         0.1150 
     35 H8         54.3137   47.6294   -3.8955 H         1 <0>         0.1150 
     36 H9         54.2026   45.1054   -3.8059 H         1 <0>         0.1150 
     37 H10        51.8883   46.4706   -0.4390 H         1 <0>         0.1150 
     38 H11        52.5529   43.3190   -4.2139 H         1 <0>         0.1150 
     39 H12        50.2093   44.7043   -0.8871 H         1 <0>         0.1150 
     40 H13        47.2804   39.0684    0.1767 H         1 <0>         0.1388 
     41 H14        49.0842   40.7697    0.2358 H         1 <0>         0.2022 
     42 H15        47.0281   39.3417   -4.0469 H         1 <0>         0.1528 
@<TRIPOS>BOND
     1    1   14 1    
     2    1   28 1    
     3    1   29 1    
     4    1   30 1    
     5    2    3 ar   
     6    2    4 ar   
     7    2   31 1    
     8    3    5 ar   
     9    3   32 1    
    10    4    6 ar   
    11    4   33 1    
    12    5   15 ar   
    13    5   34 1    
    14    6   15 ar   
    15    6   35 1    
    16    7    9 ar   
    17    7   16 ar   
    18    7   36 1    
    19    8   10 ar   
    20    8   16 ar   
    21    8   37 1    
    22    9   17 ar   
    23    9   38 1    
    24   10   17 ar   
    25   10   39 1    
    26   11   12 ar   
    27   11   18 ar   
    28   11   40 1    
    29   12   19 ar   
    30   12   41 1    
    31   13   18 ar   
    32   13   20 ar   
    33   13   42 1    
    34   14   21 ar   
    35   14   22 ar   
    36   15   16 1    
    37   17   22 1    
    38   18   27 1    
    39   19   20 ar   
    40   19   24 ar   
    41   20   21 ar   
    42   21   23 1    
    43   22   24 ar   
    44   23   25 1    
    45   23   26 2    
@<TRIPOS>SUBSTRUCTURE
     1 <0>         1 GROUP             0       ****    0 ROOT    
