@<TRIPOS>MOLECULE
reni-ligand
84   89    1
SMALL
USER_CHARGES


@<TRIPOS>ATOM
      1 C1         -0.5646  -13.5134   -9.9194 C.3       1 <0>        -0.0650 
      2 C2        -10.6358   -9.7008   -5.9699 C.3       1 <0>        -0.0650 
      3 C3         -3.0947  -13.1695  -11.4675 C.3       1 <0>        -0.0650 
      4 C4         -3.1428  -14.8630   -7.4521 C.ar      1 <0>        -0.1150 
      5 C5         -1.9292  -14.4749   -8.0406 C.ar      1 <0>        -0.1150 
      6 C6         -4.3461  -14.6836   -8.1524 C.ar      1 <0>        -0.1150 
      7 C7         -8.3509  -18.0605   -8.8084 C.ar      1 <0>        -0.1150 
      8 C8         -9.5658  -16.8235  -10.5181 C.ar      1 <0>        -0.1150 
      9 C9         -9.2811  -17.6317   -7.8438 C.ar      1 <0>        -0.1150 
     10 C10       -10.4947  -16.3947   -9.5502 C.ar      1 <0>        -0.1150 
     11 C11       -10.4475  -11.7918   -7.3911 C.ar      1 <0>        -0.1150 
     12 C12       -12.6648  -10.9121   -6.8888 C.ar      1 <0>        -0.1150 
     13 C13        -7.8309  -15.0418  -12.9407 C.3       1 <0>        -0.1200 
     14 C14        -7.5099  -13.6343  -12.5140 C.3       1 <0>        -0.1200 
     15 C15        -7.9549  -19.2397  -12.0814 C.3       1 <0>        -0.1200 
     16 C16        -5.8558  -20.7218  -12.4521 C.3       1 <0>         0.1700 
     17 C17        -4.2959  -18.7925  -11.8033 C.3       1 <0>         0.1700 
     18 C18       -11.8377  -15.1496   -7.2586 C.3       1 <0>         0.1400 
     19 C19       -12.9239  -15.2116   -8.3353 C.3       1 <0>         0.1400 
     20 C20        -5.7097  -13.9172  -10.1239 C.3       1 <0>         0.0650 
     21 C21        -1.9086  -13.9161   -9.3347 C.ar      1 <0>        -0.1150 
     22 C22       -11.2631  -10.8279   -6.7644 C.ar      1 <0>        -0.1150 
     23 C23        -3.1216  -13.7456  -10.0561 C.ar      1 <0>        -0.1150 
     24 C24        -8.4905  -17.6618  -10.1559 C.ar      1 <0>         0.0000 
     25 C25       -10.3578  -16.7961   -8.1987 C.ar      1 <0>         0.0850 
     26 C26        -4.3526  -14.1192   -9.4467 C.ar      1 <0>        -0.1150 
     27 C27       -11.0285  -12.8388   -8.1330 C.ar      1 <0>         0.1800 
     28 C28       -13.2504  -11.9574   -7.6297 C.ar      1 <0>         0.1800 
     29 C29       -12.4335  -12.9299   -8.2478 C.ar      1 <0>         0.0850 
     30 C30        -6.4985  -14.7360  -12.2731 C.3       1 <0>        -0.0149 
     31 C31        -6.8402  -19.6934  -13.0606 C.3       1 <0>         0.2300 
     32 C32        -5.3422  -17.8145  -12.3752 C.3       1 <0>         0.2300 
     33 C33        -7.5411  -18.0755  -11.1893 C.2       1 <0>         0.0000 
     34 C34        -6.3629  -17.4381  -11.3126 C.2       1 <0>        -0.0567 
     35 C35        -6.0178  -16.3425  -10.4065 C.2       1 <0>         0.5567 
     36 N1         -4.9428  -20.1232  -11.3612 N.4       1 <0>        -0.2000 
     37 N2         -6.0512  -18.4759  -13.5724 N.4       1 <0>        -0.2000 
     38 N3         -6.1732  -15.0833  -10.9035 N.am      1 <0>        -0.1151 
     39 O1         -5.6268  -16.5713   -9.2630 O.2       1 <0>        -0.5000 
     40 O2        -11.2143  -16.4245   -7.1874 O.3       1 <0>        -0.2850 
     41 O3        -12.9961  -13.9460   -8.9754 O.3       1 <0>        -0.2850 
     42 Cl1       -10.0091  -14.0053   -8.8983 Cl        1 <0>        -0.1800 
     43 Cl2       -14.9697  -12.0334   -7.7769 Cl        1 <0>        -0.1800 
     44 H1         -0.5911  -12.4858  -10.2822 H         1 <0>         0.0600 
     45 H2         -0.2965  -14.1718  -10.7461 H         1 <0>         0.0600 
     46 H3          0.2289  -13.5780   -9.1741 H         1 <0>         0.0600 
     47 H4         -9.6921  -10.0169   -5.5243 H         1 <0>         0.0600 
     48 H5        -10.4405   -8.8467   -6.6187 H         1 <0>         0.0600 
     49 H6        -11.2963   -9.3770   -5.1649 H         1 <0>         0.0600 
     50 H7         -3.8056  -13.6749  -12.1188 H         1 <0>         0.0600 
     51 H8         -3.3320  -12.1069  -11.4448 H         1 <0>         0.0600 
     52 H9         -2.1262  -13.2852  -11.9508 H         1 <0>         0.0600 
     53 H10        -3.1505  -15.2951   -6.4619 H         1 <0>         0.1150 
     54 H11        -1.0093  -14.6145   -7.4911 H         1 <0>         0.1150 
     55 H12        -5.2730  -14.9776   -7.6816 H         1 <0>         0.1150 
     56 H13        -7.5427  -18.6995   -8.4930 H         1 <0>         0.1150 
     57 H14        -9.6935  -16.5058  -11.5421 H         1 <0>         0.1150 
     58 H15        -9.1674  -17.9440   -6.8155 H         1 <0>         0.1150 
     59 H16       -11.3067  -15.7584   -9.8683 H         1 <0>         0.1150 
     60 H17        -9.3723  -11.7294   -7.3063 H         1 <0>         0.1150 
     61 H18       -13.2962  -10.1725   -6.4181 H         1 <0>         0.1150 
     62 H19        -7.8222  -15.2596  -14.0087 H         1 <0>         0.0600 
     63 H20        -8.5733  -15.5885  -12.3591 H         1 <0>         0.0600 
     64 H21        -8.0410  -13.2385  -11.6483 H         1 <0>         0.0600 
     65 H22        -7.2899  -12.9096  -13.2978 H         1 <0>         0.0600 
     66 H23        -8.2866  -20.0733  -11.4625 H         1 <0>         0.0600 
     67 H24        -8.8265  -18.9140  -12.6492 H         1 <0>         0.0600 
     68 H25        -6.4005  -21.5775  -12.0532 H         1 <0>         0.0600 
     69 H26        -5.2283  -21.1177  -13.2506 H         1 <0>         0.0600 
     70 H27        -3.5373  -18.9927  -12.5599 H         1 <0>         0.0600 
     71 H28        -3.7709  -18.3376  -10.9633 H         1 <0>         0.0600 
     72 H29       -12.2774  -14.8640   -6.3016 H         1 <0>         0.0300 
     73 H30       -11.0961  -14.3978   -7.5322 H         1 <0>         0.0300 
     74 H31       -12.6666  -15.9669   -9.0786 H         1 <0>         0.0300 
     75 H32       -13.8776  -15.5043   -7.8914 H         1 <0>         0.0300 
     76 H33        -6.4350  -13.5688   -9.3890 H         1 <0>         0.0600 
     77 H34        -5.6331  -13.0728  -10.8101 H         1 <0>         0.0600 
     78 H35        -5.6477  -14.7417  -12.9526 H         1 <0>         0.0600 
     79 H36        -7.3259  -20.1761  -13.9087 H         1 <0>         0.0600 
     80 H37        -4.8491  -16.9028  -12.7124 H         1 <0>         0.0600 
     81 H38        -5.4812  -19.9754  -10.5196 H         1 <0>         0.3100 
     82 H39        -4.2247  -20.7880  -11.1113 H         1 <0>         0.3100 
     83 H40        -6.6741  -17.8185  -14.0196 H         1 <0>         0.3100 
     84 H41        -5.3805  -18.7534  -14.2747 H         1 <0>         0.3100 
@<TRIPOS>BOND
     1    1   21 1    
     2    1   44 1    
     3    1   45 1    
     4    1   46 1    
     5    2   22 1    
     6    2   47 1    
     7    2   48 1    
     8    2   49 1    
     9    3   23 1    
    10    3   50 1    
    11    3   51 1    
    12    3   52 1    
    13    4    5 ar   
    14    4    6 ar   
    15    4   53 1    
    16    5   21 ar   
    17    5   54 1    
    18    6   26 ar   
    19    6   55 1    
    20    7    9 ar   
    21    7   24 ar   
    22    7   56 1    
    23    8   10 ar   
    24    8   24 ar   
    25    8   57 1    
    26    9   25 ar   
    27    9   58 1    
    28   10   25 ar   
    29   10   59 1    
    30   11   22 ar   
    31   11   27 ar   
    32   11   60 1    
    33   12   22 ar   
    34   12   28 ar   
    35   12   61 1    
    36   13   14 1    
    37   13   30 1    
    38   13   62 1    
    39   13   63 1    
    40   14   30 1    
    41   14   64 1    
    42   14   65 1    
    43   15   31 1    
    44   15   33 1    
    45   15   66 1    
    46   15   67 1    
    47   16   31 1    
    48   16   36 1    
    49   16   68 1    
    50   16   69 1    
    51   17   32 1    
    52   17   36 1    
    53   17   70 1    
    54   17   71 1    
    55   18   19 1    
    56   18   40 1    
    57   18   72 1    
    58   18   73 1    
    59   19   41 1    
    60   19   74 1    
    61   19   75 1    
    62   20   26 1    
    63   20   38 1    
    64   20   76 1    
    65   20   77 1    
    66   21   23 ar   
    67   23   26 ar   
    68   24   33 1    
    69   25   40 1    
    70   27   29 ar   
    71   27   42 1    
    72   28   29 ar   
    73   28   43 1    
    74   29   41 1    
    75   30   38 1    
    76   30   78 1    
    77   31   37 1    
    78   31   79 1    
    79   32   34 1    
    80   32   37 1    
    81   32   80 1    
    82   33   34 2    
    83   34   35 1    
    84   35   38 am   BACKBONE|DICT|INTERRES
    85   35   39 2    
    86   36   81 1    
    87   36   82 1    
    88   37   83 1    
    89   37   84 1    
@<TRIPOS>SUBSTRUCTURE
     1 <0>         1 GROUP             0       ****    0 ROOT    
@<TRIPOS>MOLECULE
reni-ligand
84   89    1
SMALL
USER_CHARGES


@<TRIPOS>ATOM
      1 C1         -2.1094  -14.3254   -7.0266 C.3       1 <0>        -0.0650 
      2 C2        -10.2536   -9.1789   -6.0636 C.3       1 <0>        -0.0650 
      3 C3         -4.9810  -14.9099   -7.5999 C.3       1 <0>        -0.0650 
      4 C4         -2.5642  -12.6095  -10.4037 C.ar      1 <0>        -0.1150 
      5 C5         -2.0007  -13.0835   -9.2089 C.ar      1 <0>        -0.1150 
      6 C6         -3.9047  -12.8975  -10.7048 C.ar      1 <0>        -0.1150 
      7 C7         -8.5030  -17.5962   -8.9939 C.ar      1 <0>        -0.1150 
      8 C8        -10.0040  -17.3699  -10.8977 C.ar      1 <0>        -0.1150 
      9 C9         -9.5236  -17.1380   -8.1407 C.ar      1 <0>        -0.1150 
     10 C10       -11.0234  -16.9102  -10.0415 C.ar      1 <0>        -0.1150 
     11 C11       -10.1203  -11.3277   -7.4024 C.ar      1 <0>        -0.1150 
     12 C12       -12.3117  -10.5060   -6.7205 C.ar      1 <0>        -0.1150 
     13 C13        -7.2119  -14.2401  -13.3304 C.3       1 <0>        -0.1200 
     14 C14        -5.9873  -13.4657  -12.9220 C.3       1 <0>        -0.1200 
     15 C15        -8.0411  -19.3886  -12.1729 C.3       1 <0>        -0.1200 
     16 C16        -5.9222  -20.8845  -12.2853 C.3       1 <0>         0.1700 
     17 C17        -4.4193  -18.9242  -11.5959 C.3       1 <0>         0.1700 
     18 C18       -13.0148  -15.9880   -8.2126 C.3       1 <0>         0.1400 
     19 C19       -13.3204  -14.5688   -7.7275 C.3       1 <0>         0.1400 
     20 C20        -6.1364  -13.9642  -10.2405 C.3       1 <0>         0.0650 
     21 C21        -2.7745  -13.8377   -8.3034 C.ar      1 <0>        -0.1150 
     22 C22       -10.9092  -10.3650   -6.7406 C.ar      1 <0>        -0.1150 
     23 C23        -4.1370  -14.1203   -8.5943 C.ar      1 <0>        -0.1150 
     24 C24        -8.7390  -17.7198  -10.3807 C.ar      1 <0>         0.0000 
     25 C25       -10.7893  -16.7885   -8.6499 C.ar      1 <0>         0.0850 
     26 C26        -4.6983  -13.6574   -9.8178 C.ar      1 <0>        -0.1150 
     27 C27       -10.7280  -12.4296   -8.0353 C.ar      1 <0>         0.1800 
     28 C28       -12.9239  -11.6063   -7.3521 C.ar      1 <0>         0.1800 
     29 C29       -12.1326  -12.5772   -8.0049 C.ar      1 <0>         0.0850 
     30 C30        -6.1399  -14.9070  -12.4816 C.3       1 <0>        -0.0149 
     31 C31        -6.8461  -19.8881  -13.0272 C.3       1 <0>         0.2300 
     32 C32        -5.4082  -17.9764  -12.3044 C.3       1 <0>         0.2300 
     33 C33        -7.7037  -18.1820  -11.3053 C.2       1 <0>         0.0000 
     34 C34        -6.5173  -17.5500  -11.3552 C.2       1 <0>        -0.0567 
     35 C35        -6.2497  -16.4114  -10.4763 C.2       1 <0>         0.5567 
     36 N1         -5.1067  -20.2327  -11.1486 N.4       1 <0>        -0.2000 
     37 N2         -6.0113  -18.6958  -13.5259 N.4       1 <0>        -0.2000 
     38 N3         -6.2749  -15.1825  -11.0645 N.am      1 <0>        -0.1151 
     39 O1         -6.0323  -16.5794   -9.2775 O.2       1 <0>        -0.5000 
     40 O2        -11.7234  -16.3467   -7.7406 O.3       1 <0>        -0.2850 
     41 O3        -12.7218  -13.6470   -8.6268 O.3       1 <0>        -0.2850 
     42 Cl1        -9.7418  -13.5940   -8.8462 Cl        1 <0>        -0.1800 
     43 Cl2       -14.6448  -11.7517   -7.3231 Cl        1 <0>        -0.1800 
     44 H1         -2.2594  -15.3971   -6.8954 H         1 <0>         0.0600 
     45 H2         -2.5189  -13.8041   -6.1609 H         1 <0>         0.0600 
     46 H3         -1.0342  -14.1442   -7.0438 H         1 <0>         0.0600 
     47 H4         -9.2586   -9.4386   -5.7010 H         1 <0>         0.0600 
     48 H5        -10.1580   -8.3505   -6.7659 H         1 <0>         0.0600 
     49 H6        -10.8446   -8.8409   -5.2118 H         1 <0>         0.0600 
     50 H7         -5.9924  -14.5134   -7.5310 H         1 <0>         0.0600 
     51 H8         -5.0327  -15.9562   -7.8976 H         1 <0>         0.0600 
     52 H9         -4.5847  -14.8702   -6.5868 H         1 <0>         0.0600 
     53 H10        -1.9667  -12.0279  -11.0906 H         1 <0>         0.1150 
     54 H11        -0.9670  -12.8587   -8.9888 H         1 <0>         0.1150 
     55 H12        -4.3209  -12.5345  -11.6334 H         1 <0>         0.1150 
     56 H13        -7.5499  -17.8530   -8.5617 H         1 <0>         0.1150 
     57 H14       -10.2083  -17.4563  -11.9545 H         1 <0>         0.1150 
     58 H15        -9.3343  -17.0490   -7.0804 H         1 <0>         0.1150 
     59 H16       -11.9793  -16.6578  -10.4751 H         1 <0>         0.1150 
     60 H17        -9.0454  -11.2223   -7.4283 H         1 <0>         0.1150 
     61 H18       -12.9236   -9.7679   -6.2223 H         1 <0>         0.1150 
     62 H19        -7.2915  -14.5446  -14.3740 H         1 <0>         0.0600 
     63 H20        -8.1544  -13.9862  -12.8453 H         1 <0>         0.0600 
     64 H21        -6.1121  -12.6909  -12.1655 H         1 <0>         0.0600 
     65 H22        -5.2492  -13.2493  -13.6942 H         1 <0>         0.0600 
     66 H23        -8.4285  -20.1916  -11.5459 H         1 <0>         0.0600 
     67 H24        -8.8584  -19.0918  -12.8303 H         1 <0>         0.0600 
     68 H25        -6.5025  -21.7205  -11.8949 H         1 <0>         0.0600 
     69 H26        -5.2281  -21.3180  -13.0054 H         1 <0>         0.0600 
     70 H27        -3.5978  -19.1601  -12.2723 H         1 <0>         0.0600 
     71 H28        -3.9688  -18.4285  -10.7361 H         1 <0>         0.0600 
     72 H29       -13.0698  -16.0297   -9.3015 H         1 <0>         0.0300 
     73 H30       -13.7546  -16.6790   -7.8061 H         1 <0>         0.0300 
     74 H31       -14.3982  -14.4032   -7.7207 H         1 <0>         0.0300 
     75 H32       -12.9648  -14.4361   -6.7037 H         1 <0>         0.0300 
     76 H33        -6.7832  -13.9560   -9.3635 H         1 <0>         0.0600 
     77 H34        -6.5120  -13.1257  -10.8282 H         1 <0>         0.0600 
     78 H35        -5.5257  -15.6252  -13.0227 H         1 <0>         0.0600 
     79 H36        -7.2568  -20.4118  -13.8903 H         1 <0>         0.0600 
     80 H37        -4.8845  -17.0815  -12.6407 H         1 <0>         0.0600 
     81 H38        -5.7166  -20.0449  -10.3657 H         1 <0>         0.3100 
     82 H39        -4.4155  -20.8838  -10.8046 H         1 <0>         0.3100 
     83 H40        -6.5904  -18.0617  -14.0575 H         1 <0>         0.3100 
     84 H41        -5.2823  -19.0063  -14.1522 H         1 <0>         0.3100 
@<TRIPOS>BOND
     1    1   21 1    
     2    1   44 1    
     3    1   45 1    
     4    1   46 1    
     5    2   22 1    
     6    2   47 1    
     7    2   48 1    
     8    2   49 1    
     9    3   23 1    
    10    3   50 1    
    11    3   51 1    
    12    3   52 1    
    13    4    5 ar   
    14    4    6 ar   
    15    4   53 1    
    16    5   21 ar   
    17    5   54 1    
    18    6   26 ar   
    19    6   55 1    
    20    7    9 ar   
    21    7   24 ar   
    22    7   56 1    
    23    8   10 ar   
    24    8   24 ar   
    25    8   57 1    
    26    9   25 ar   
    27    9   58 1    
    28   10   25 ar   
    29   10   59 1    
    30   11   22 ar   
    31   11   27 ar   
    32   11   60 1    
    33   12   22 ar   
    34   12   28 ar   
    35   12   61 1    
    36   13   14 1    
    37   13   30 1    
    38   13   62 1    
    39   13   63 1    
    40   14   30 1    
    41   14   64 1    
    42   14   65 1    
    43   15   31 1    
    44   15   33 1    
    45   15   66 1    
    46   15   67 1    
    47   16   31 1    
    48   16   36 1    
    49   16   68 1    
    50   16   69 1    
    51   17   32 1    
    52   17   36 1    
    53   17   70 1    
    54   17   71 1    
    55   18   19 1    
    56   18   40 1    
    57   18   72 1    
    58   18   73 1    
    59   19   41 1    
    60   19   74 1    
    61   19   75 1    
    62   20   26 1    
    63   20   38 1    
    64   20   76 1    
    65   20   77 1    
    66   21   23 ar   
    67   23   26 ar   
    68   24   33 1    
    69   25   40 1    
    70   27   29 ar   
    71   27   42 1    
    72   28   29 ar   
    73   28   43 1    
    74   29   41 1    
    75   30   38 1    
    76   30   78 1    
    77   31   37 1    
    78   31   79 1    
    79   32   34 1    
    80   32   37 1    
    81   32   80 1    
    82   33   34 2    
    83   34   35 1    
    84   35   38 am   BACKBONE|DICT|INTERRES
    85   35   39 2    
    86   36   81 1    
    87   36   82 1    
    88   37   83 1    
    89   37   84 1    
@<TRIPOS>SUBSTRUCTURE
     1 <0>         1 GROUP             0       ****    0 ROOT    
@<TRIPOS>MOLECULE
reni-ligand
84   89    1
SMALL
USER_CHARGES


@<TRIPOS>ATOM
      1 C1         -1.6755  -13.0333   -7.3068 C.3       1 <0>        -0.0650 
      2 C2        -10.2225   -8.7727   -5.9862 C.3       1 <0>        -0.0650 
      3 C3         -4.4299  -14.2276   -7.3132 C.3       1 <0>        -0.0650 
      4 C4         -2.7925  -12.3244  -10.8766 C.ar      1 <0>        -0.1150 
      5 C5         -2.0274  -12.3971   -9.7053 C.ar      1 <0>        -0.1150 
      6 C6         -4.0743  -12.8940  -10.9085 C.ar      1 <0>        -0.1150 
      7 C7         -8.3771  -17.8401   -9.0059 C.ar      1 <0>        -0.1150 
      8 C8         -9.7947  -17.0582  -10.8176 C.ar      1 <0>        -0.1150 
      9 C9         -9.3454  -17.4146   -8.0791 C.ar      1 <0>        -0.1150 
     10 C10       -10.7613  -16.6253   -9.8884 C.ar      1 <0>        -0.1150 
     11 C11       -12.1517  -10.3164   -6.4930 C.ar      1 <0>        -0.1150 
     12 C12        -9.9488  -10.9344   -7.2929 C.ar      1 <0>        -0.1150 
     13 C13        -7.5302  -15.0698  -13.1077 C.3       1 <0>        -0.1200 
     14 C14        -7.3591  -13.6726  -12.5822 C.3       1 <0>        -0.1200 
     15 C15        -7.9775  -19.2329  -12.2921 C.3       1 <0>        -0.1200 
     16 C16        -5.9300  -20.8058  -12.5664 C.3       1 <0>         0.1700 
     17 C17        -4.3431  -19.0084  -11.9726 C.3       1 <0>         0.1700 
     18 C18       -12.7274  -15.9451   -7.7893 C.3       1 <0>         0.1400 
     19 C19       -12.8486  -14.4914   -7.3092 C.3       1 <0>         0.1400 
     20 C20        -6.0233  -14.1367   -9.8744 C.3       1 <0>         0.0650 
     21 C21        -2.5453  -13.0195   -8.5531 C.ar      1 <0>        -0.1150 
     22 C22       -10.7793  -10.0400   -6.5954 C.ar      1 <0>        -0.1150 
     23 C23        -3.8451  -13.5971   -8.5751 C.ar      1 <0>        -0.1150 
     24 C24        -8.5871  -17.6436  -10.3840 C.ar      1 <0>         0.0000 
     25 C25       -10.5450  -16.8069   -8.4988 C.ar      1 <0>         0.0850 
     26 C26        -4.6096  -13.5502   -9.7766 C.ar      1 <0>        -0.1150 
     27 C27       -12.7129  -11.4391   -7.1289 C.ar      1 <0>         0.1800 
     28 C28       -10.4817  -12.1335   -7.8140 C.ar      1 <0>         0.1800 
     29 C29       -11.8665  -12.3968   -7.7447 C.ar      1 <0>         0.0850 
     30 C30        -6.3326  -14.7387  -12.2499 C.3       1 <0>        -0.0149 
     31 C31        -6.8509  -19.7420  -13.2210 C.3       1 <0>         0.2300 
     32 C32        -5.3321  -17.9743  -12.5558 C.3       1 <0>         0.2300 
     33 C33        -7.5793  -18.0687  -11.3827 C.2       1 <0>         0.0000 
     34 C34        -6.3443  -17.5024  -11.5063 C.2       1 <0>        -0.0567 
     35 C35        -5.8927  -16.4814  -10.5614 C.2       1 <0>         0.5567 
     36 N1         -5.0638  -20.2196  -11.5147 N.4       1 <0>        -0.2000 
     37 N2         -6.0494  -18.5960  -13.6930 N.4       1 <0>        -0.2000 
     38 N3         -6.1964  -15.1980  -10.8882 N.am      1 <0>        -0.1151 
     39 O1         -5.3637  -16.7974   -9.4929 O.2       1 <0>        -0.5000 
     40 O2        -11.4279  -16.4599   -7.4951 O.3       1 <0>        -0.2850 
     41 O3        -12.3430  -13.5752   -8.2798 O.3       1 <0>        -0.2850 
     42 Cl1       -14.4325  -11.5887   -7.1434 Cl        1 <0>        -0.1800 
     43 Cl2        -9.4139  -13.3067   -8.4951 Cl        1 <0>        -0.1800 
     44 H1         -1.4796  -14.0546   -6.9810 H         1 <0>         0.0600 
     45 H2         -2.1610  -12.4890   -6.4984 H         1 <0>         0.0600 
     46 H3         -0.7122  -12.5565   -7.4865 H         1 <0>         0.0600 
     47 H4        -10.9071   -7.9393   -6.1503 H         1 <0>         0.0600 
     48 H5        -10.0819   -8.9025   -4.9160 H         1 <0>         0.0600 
     49 H6         -9.2627   -8.5075   -6.4219 H         1 <0>         0.0600 
     50 H7         -5.2764  -13.6358   -6.9618 H         1 <0>         0.0600 
     51 H8         -4.7789  -15.2391   -7.5044 H         1 <0>         0.0600 
     52 H9         -3.7209  -14.2983   -6.4925 H         1 <0>         0.0600 
     53 H10        -2.3963  -11.8355  -11.7547 H         1 <0>         0.1150 
     54 H11        -1.0375  -11.9621   -9.6982 H         1 <0>         0.1150 
     55 H12        -4.6500  -12.7963  -11.8136 H         1 <0>         0.1150 
     56 H13        -7.4747  -18.3113   -8.6537 H         1 <0>         0.1150 
     57 H14        -9.9821  -16.9240  -11.8733 H         1 <0>         0.1150 
     58 H15        -9.1697  -17.5676   -7.0253 H         1 <0>         0.1150 
     59 H16       -11.6512  -16.1562  -10.2745 H         1 <0>         0.1150 
     60 H17       -12.8012   -9.5931   -6.0252 H         1 <0>         0.1150 
     61 H18        -8.8896  -10.7368   -7.3705 H         1 <0>         0.1150 
     62 H19        -7.3266  -15.2366  -14.1592 H         1 <0>         0.0600 
     63 H20        -8.3331  -15.6673  -12.6933 H         1 <0>         0.0600 
     64 H21        -8.0485  -13.3476  -11.8100 H         1 <0>         0.0600 
     65 H22        -7.0711  -12.9012  -13.2886 H         1 <0>         0.0600 
     66 H23        -8.3477  -20.0532  -11.6759 H         1 <0>         0.0600 
     67 H24        -8.8259  -18.9063  -12.8929 H         1 <0>         0.0600 
     68 H25        -6.5176  -21.6224  -12.1463 H         1 <0>         0.0600 
     69 H26        -5.2903  -21.2514  -13.3296 H         1 <0>         0.0600 
     70 H27        -3.6075  -19.2938  -12.7252 H         1 <0>         0.0600 
     71 H28        -3.7806  -18.5853  -11.1395 H         1 <0>         0.0600 
     72 H29       -13.0863  -16.0703   -8.8059 H         1 <0>         0.0300 
     73 H30       -13.4081  -16.5430   -7.1836 H         1 <0>         0.0300 
     74 H31       -13.9049  -14.2730   -7.1404 H         1 <0>         0.0300 
     75 H32       -12.3474  -14.3807   -6.3421 H         1 <0>         0.0300 
     76 H33        -6.3907  -14.5002   -8.9153 H         1 <0>         0.0600 
     77 H34        -6.6955  -13.3106  -10.0831 H         1 <0>         0.0600 
     78 H35        -5.3982  -14.6854  -12.8037 H         1 <0>         0.0600 
     79 H36        -7.3196  -20.2001  -14.0897 H         1 <0>         0.0600 
     80 H37        -4.7821  -17.1144  -12.9422 H         1 <0>         0.0600 
     81 H38        -5.6467  -19.9555  -10.7298 H         1 <0>         0.3100 
     82 H39        -4.3957  -20.9093  -11.1984 H         1 <0>         0.3100 
     83 H40        -6.6963  -17.9417  -14.1339 H         1 <0>         0.3100 
     84 H41        -5.3849  -18.9118  -14.3833 H         1 <0>         0.3100 
@<TRIPOS>BOND
     1    1   21 1    
     2    1   44 1    
     3    1   45 1    
     4    1   46 1    
     5    2   22 1    
     6    2   47 1    
     7    2   48 1    
     8    2   49 1    
     9    3   23 1    
    10    3   50 1    
    11    3   51 1    
    12    3   52 1    
    13    4    5 ar   
    14    4    6 ar   
    15    4   53 1    
    16    5   21 ar   
    17    5   54 1    
    18    6   26 ar   
    19    6   55 1    
    20    7    9 ar   
    21    7   24 ar   
    22    7   56 1    
    23    8   10 ar   
    24    8   24 ar   
    25    8   57 1    
    26    9   25 ar   
    27    9   58 1    
    28   10   25 ar   
    29   10   59 1    
    30   11   22 ar   
    31   11   27 ar   
    32   11   60 1    
    33   12   22 ar   
    34   12   28 ar   
    35   12   61 1    
    36   13   14 1    
    37   13   30 1    
    38   13   62 1    
    39   13   63 1    
    40   14   30 1    
    41   14   64 1    
    42   14   65 1    
    43   15   31 1    
    44   15   33 1    
    45   15   66 1    
    46   15   67 1    
    47   16   31 1    
    48   16   36 1    
    49   16   68 1    
    50   16   69 1    
    51   17   32 1    
    52   17   36 1    
    53   17   70 1    
    54   17   71 1    
    55   18   19 1    
    56   18   40 1    
    57   18   72 1    
    58   18   73 1    
    59   19   41 1    
    60   19   74 1    
    61   19   75 1    
    62   20   26 1    
    63   20   38 1    
    64   20   76 1    
    65   20   77 1    
    66   21   23 ar   
    67   23   26 ar   
    68   24   33 1    
    69   25   40 1    
    70   27   29 ar   
    71   27   42 1    
    72   28   29 ar   
    73   28   43 1    
    74   29   41 1    
    75   30   38 1    
    76   30   78 1    
    77   31   37 1    
    78   31   79 1    
    79   32   34 1    
    80   32   37 1    
    81   32   80 1    
    82   33   34 2    
    83   34   35 1    
    84   35   38 am   BACKBONE|DICT|INTERRES
    85   35   39 2    
    86   36   81 1    
    87   36   82 1    
    88   37   83 1    
    89   37   84 1    
@<TRIPOS>SUBSTRUCTURE
     1 <0>         1 GROUP             0       ****    0 ROOT    
@<TRIPOS>MOLECULE
reni-ligand
84   89    1
SMALL
USER_CHARGES


@<TRIPOS>ATOM
      1 C1         -0.3169  -15.0082  -10.1197 C.3       1 <0>        -0.0650 
      2 C2        -10.0726   -8.5568   -6.4932 C.3       1 <0>        -0.0650 
      3 C3         -2.7673  -14.3539  -11.6922 C.3       1 <0>        -0.0650 
      4 C4         -2.8127  -14.2505   -7.3421 C.ar      1 <0>        -0.1150 
      5 C5         -1.6326  -14.5745   -8.0268 C.ar      1 <0>        -0.1150 
      6 C6         -3.9977  -14.0207   -8.0600 C.ar      1 <0>        -0.1150 
      7 C7         -8.3721  -17.8839   -8.9175 C.ar      1 <0>        -0.1150 
      8 C8         -9.7526  -16.8869  -10.6537 C.ar      1 <0>        -0.1150 
      9 C9         -9.3227  -17.5053   -7.9548 C.ar      1 <0>        -0.1150 
     10 C10       -10.7067  -16.5065   -9.6871 C.ar      1 <0>        -0.1150 
     11 C11       -12.0937  -10.1219   -6.4930 C.ar      1 <0>        -0.1150 
     12 C12        -9.9638  -10.9056   -7.3454 C.ar      1 <0>        -0.1150 
     13 C13        -7.4344  -14.9037  -13.1324 C.3       1 <0>        -0.1200 
     14 C14        -7.3932  -13.5490  -12.4788 C.3       1 <0>        -0.1200 
     15 C15        -7.9010  -19.1360  -12.1594 C.3       1 <0>        -0.1200 
     16 C16        -5.7518  -20.5555  -12.4358 C.3       1 <0>         0.1700 
     17 C17        -4.2902  -18.6301  -11.9185 C.3       1 <0>         0.1700 
     18 C18       -12.6342  -15.9174   -7.4994 C.3       1 <0>         0.1400 
     19 C19       -12.6749  -14.4945   -6.9118 C.3       1 <0>         0.1400 
     20 C20        -5.3547  -13.8431  -10.1692 C.3       1 <0>         0.0650 
     21 C21        -1.6221  -14.6441   -9.4346 C.ar      1 <0>        -0.1150 
     22 C22       -10.7262   -9.8941   -6.7536 C.ar      1 <0>        -0.1150 
     23 C23        -2.8057  -14.3696  -10.1700 C.ar      1 <0>        -0.1150 
     24 C24        -8.5694  -17.5475  -10.2695 C.ar      1 <0>         0.0000 
     25 C25       -10.4970  -16.8139   -8.3191 C.ar      1 <0>         0.0850 
     26 C26        -4.0134  -14.0898   -9.4700 C.ar      1 <0>        -0.1150 
     27 C27       -12.7145  -11.3340   -6.8945 C.ar      1 <0>         0.1800 
     28 C28       -10.5614  -12.1197   -7.7234 C.ar      1 <0>         0.1800 
     29 C29       -11.9345  -12.3478   -7.5027 C.ar      1 <0>         0.0850 
     30 C30        -6.2147  -14.4860  -12.3293 C.3       1 <0>        -0.0149 
     31 C31        -6.7606  -19.5849  -13.1013 C.3       1 <0>         0.2300 
     32 C32        -5.3601  -17.6893  -12.5172 C.3       1 <0>         0.2300 
     33 C33        -7.5671  -17.9200  -11.2920 C.2       1 <0>         0.0000 
     34 C34        -6.3857  -17.2571  -11.4617 C.2       1 <0>        -0.0567 
     35 C35        -5.9753  -16.2154  -10.5187 C.2       1 <0>         0.5567 
     36 N1         -4.9140  -19.8774  -11.4149 N.4       1 <0>        -0.2000 
     37 N2         -6.0491  -18.3984  -13.6193 N.4       1 <0>        -0.2000 
     38 N3         -5.9021  -14.9410  -10.9950 N.am      1 <0>        -0.1151 
     39 O1         -5.6698  -16.5028   -9.3605 O.2       1 <0>        -0.5000 
     40 O2        -11.3517  -16.5056   -7.2803 O.3       1 <0>        -0.2850 
     41 O3        -12.4830  -13.5303   -7.9370 O.3       1 <0>        -0.2850 
     42 Cl1       -14.4297  -11.5419   -6.7054 Cl        1 <0>        -0.1800 
     43 Cl2        -9.5837  -13.3130   -8.4934 Cl        1 <0>        -0.1800 
     44 H1          0.1698  -14.1066  -10.4926 H         1 <0>         0.0600 
     45 H2         -0.4827  -15.6993  -10.9454 H         1 <0>         0.0600 
     46 H3          0.3702  -15.4932   -9.4250 H         1 <0>         0.0600 
     47 H4        -10.7820   -7.7396   -6.6244 H         1 <0>         0.0600 
     48 H5         -9.6579   -8.5163   -5.4893 H         1 <0>         0.0600 
     49 H6         -9.2499   -8.4165   -7.1971 H         1 <0>         0.0600 
     50 H7         -3.0621  -15.3221  -12.0909 H         1 <0>         0.0600 
     51 H8         -3.4297  -13.5933  -12.0907 H         1 <0>         0.0600 
     52 H9         -1.7816  -14.1071  -12.0793 H         1 <0>         0.0600 
     53 H10        -2.8082  -14.1800   -6.2660 H         1 <0>         0.1150 
     54 H11        -0.7310  -14.7615   -7.4623 H         1 <0>         0.1150 
     55 H12        -4.9015  -13.7905   -7.5149 H         1 <0>         0.1150 
     56 H13        -7.4842  -18.4137   -8.6118 H         1 <0>         0.1150 
     57 H14        -9.9211  -16.6498  -11.6929 H         1 <0>         0.1150 
     58 H15        -9.1550  -17.7532   -6.9173 H         1 <0>         0.1150 
     59 H16       -11.5817  -15.9742  -10.0246 H         1 <0>         0.1150 
     60 H17       -12.6962   -9.3306   -6.0714 H         1 <0>         0.1150 
     61 H18        -8.9284  -10.7336   -7.6121 H         1 <0>         0.1150 
     62 H19        -7.3165  -14.9337  -14.2123 H         1 <0>         0.0600 
     63 H20        -8.1551  -15.6104  -12.7319 H         1 <0>         0.0600 
     64 H21        -8.0482  -13.4010  -11.6198 H         1 <0>         0.0600 
     65 H22        -7.2489  -12.6745  -13.1078 H         1 <0>         0.0600 
     66 H23        -8.1903  -19.9614  -11.5100 H         1 <0>         0.0600 
     67 H24        -8.7927  -18.9056  -12.7414 H         1 <0>         0.0600 
     68 H25        -6.2674  -21.4020  -11.9802 H         1 <0>         0.0600 
     69 H26        -5.0892  -20.9728  -13.1960 H         1 <0>         0.0600 
     70 H27        -3.5453  -18.8840  -12.6758 H         1 <0>         0.0600 
     71 H28        -3.7551  -18.1410  -11.1040 H         1 <0>         0.0600 
     72 H29       -13.0093  -15.9498   -8.5204 H         1 <0>         0.0300 
     73 H30       -13.3263  -16.5342   -6.9272 H         1 <0>         0.0300 
     74 H31       -13.6491  -14.3157   -6.4561 H         1 <0>         0.0300 
     75 H32       -11.9360  -14.3958   -6.1109 H         1 <0>         0.0300 
     76 H33        -6.1130  -13.6092   -9.4205 H         1 <0>         0.0600 
     77 H34        -5.2440  -12.9262  -10.7518 H         1 <0>         0.0600 
     78 H35        -5.3489  -14.2450  -12.9376 H         1 <0>         0.0600 
     79 H36        -7.2118  -20.0983  -13.9513 H         1 <0>         0.0600 
     80 H37        -4.8761  -16.8090  -12.9435 H         1 <0>         0.0600 
     81 H38        -5.5005  -19.6432  -10.6253 H         1 <0>         0.3100 
     82 H39        -4.1885  -20.5093  -11.0996 H         1 <0>         0.3100 
     83 H40        -6.7430  -17.7918  -14.0549 H         1 <0>         0.3100 
     84 H41        -5.3818  -18.6805  -14.3208 H         1 <0>         0.3100 
@<TRIPOS>BOND
     1    1   21 1    
     2    1   44 1    
     3    1   45 1    
     4    1   46 1    
     5    2   22 1    
     6    2   47 1    
     7    2   48 1    
     8    2   49 1    
     9    3   23 1    
    10    3   50 1    
    11    3   51 1    
    12    3   52 1    
    13    4    5 ar   
    14    4    6 ar   
    15    4   53 1    
    16    5   21 ar   
    17    5   54 1    
    18    6   26 ar   
    19    6   55 1    
    20    7    9 ar   
    21    7   24 ar   
    22    7   56 1    
    23    8   10 ar   
    24    8   24 ar   
    25    8   57 1    
    26    9   25 ar   
    27    9   58 1    
    28   10   25 ar   
    29   10   59 1    
    30   11   22 ar   
    31   11   27 ar   
    32   11   60 1    
    33   12   22 ar   
    34   12   28 ar   
    35   12   61 1    
    36   13   14 1    
    37   13   30 1    
    38   13   62 1    
    39   13   63 1    
    40   14   30 1    
    41   14   64 1    
    42   14   65 1    
    43   15   31 1    
    44   15   33 1    
    45   15   66 1    
    46   15   67 1    
    47   16   31 1    
    48   16   36 1    
    49   16   68 1    
    50   16   69 1    
    51   17   32 1    
    52   17   36 1    
    53   17   70 1    
    54   17   71 1    
    55   18   19 1    
    56   18   40 1    
    57   18   72 1    
    58   18   73 1    
    59   19   41 1    
    60   19   74 1    
    61   19   75 1    
    62   20   26 1    
    63   20   38 1    
    64   20   76 1    
    65   20   77 1    
    66   21   23 ar   
    67   23   26 ar   
    68   24   33 1    
    69   25   40 1    
    70   27   29 ar   
    71   27   42 1    
    72   28   29 ar   
    73   28   43 1    
    74   29   41 1    
    75   30   38 1    
    76   30   78 1    
    77   31   37 1    
    78   31   79 1    
    79   32   34 1    
    80   32   37 1    
    81   32   80 1    
    82   33   34 2    
    83   34   35 1    
    84   35   38 am   BACKBONE|DICT|INTERRES
    85   35   39 2    
    86   36   81 1    
    87   36   82 1    
    88   37   83 1    
    89   37   84 1    
@<TRIPOS>SUBSTRUCTURE
     1 <0>         1 GROUP             0       ****    0 ROOT    
@<TRIPOS>MOLECULE
reni-ligand
84   89    1
SMALL
USER_CHARGES


@<TRIPOS>ATOM
      1 C1         -3.0544  -10.8728   -7.3525 C.3       1 <0>        -0.0650 
      2 C2        -10.3361   -8.7055   -6.1086 C.3       1 <0>        -0.0650 
      3 C3         -5.3873  -12.7614   -7.4237 C.3       1 <0>        -0.0650 
      4 C4         -2.8518  -12.2071  -10.9252 C.ar      1 <0>        -0.1150 
      5 C5         -2.5701  -11.5162   -9.7367 C.ar      1 <0>        -0.1150 
      6 C6         -3.9395  -13.0918  -10.9789 C.ar      1 <0>        -0.1150 
      7 C7         -8.1966  -18.2501   -9.4726 C.ar      1 <0>        -0.1150 
      8 C8         -9.1709  -16.9102  -11.2537 C.ar      1 <0>        -0.1150 
      9 C9         -9.2700  -17.9022   -8.6320 C.ar      1 <0>        -0.1150 
     10 C10       -10.2661  -16.5976  -10.4212 C.ar      1 <0>        -0.1150 
     11 C11        -9.9815  -10.9305   -7.2929 C.ar      1 <0>        -0.1150 
     12 C12       -12.1969  -10.3434   -6.4931 C.ar      1 <0>        -0.1150 
     13 C13        -4.3373  -16.3188   -8.5075 C.3       1 <0>        -0.1200 
     14 C14        -4.5024  -17.5630   -9.3351 C.3       1 <0>        -0.1200 
     15 C15        -7.1176  -19.5774  -12.2124 C.3       1 <0>        -0.1200 
     16 C16        -4.7291  -20.5231  -12.5612 C.3       1 <0>         0.1700 
     17 C17        -3.7424  -18.2552  -12.7251 C.3       1 <0>         0.1700 
     18 C18       -12.4199  -15.9563   -8.4632 C.3       1 <0>         0.1400 
     19 C19       -12.2583  -14.7157   -7.5723 C.3       1 <0>         0.1400 
     20 C20        -5.9358  -14.2712   -9.9682 C.3       1 <0>         0.0650 
     21 C21        -3.3819  -11.6856   -8.5971 C.ar      1 <0>        -0.1150 
     22 C22       -10.8372  -10.0334   -6.6260 C.ar      1 <0>        -0.1150 
     23 C23        -4.4836  -12.5848   -8.6416 C.ar      1 <0>        -0.1150 
     24 C24        -8.1255  -17.7342  -10.7822 C.ar      1 <0>         0.0000 
     25 C25       -10.3199  -17.0784   -9.0899 C.ar      1 <0>         0.0850 
     26 C26        -4.7544  -13.3028   -9.8443 C.ar      1 <0>        -0.1150 
     27 C27       -10.4925  -12.1443   -7.8079 C.ar      1 <0>         0.1800 
     28 C28       -12.7342  -11.4865   -7.1098 C.ar      1 <0>         0.1800 
     29 C29       -11.8798  -12.4110   -7.7492 C.ar      1 <0>         0.0850 
     30 C30        -4.4471  -16.2106  -10.0169 C.3       1 <0>        -0.0149 
     31 C31        -6.0202  -19.9707  -13.2231 C.3       1 <0>         0.2300 
     32 C32        -5.0890  -17.7349  -13.2698 C.3       1 <0>         0.2300 
     33 C33        -7.0243  -18.1466  -11.6839 C.2       1 <0>         0.0000 
     34 C34        -6.0685  -17.3008  -12.1668 C.2       1 <0>        -0.0567 
     35 C35        -6.1043  -15.8789  -11.8215 C.2       1 <0>         0.5567 
     36 N1         -3.9483  -19.4592  -11.8863 N.4       1 <0>        -0.2000 
     37 N2         -5.6904  -18.8128  -14.0781 N.4       1 <0>        -0.2000 
     38 N3         -5.6082  -15.5678  -10.5931 N.am      1 <0>        -0.1151 
     39 O1         -6.6524  -15.0520  -12.5497 O.2       1 <0>        -0.5000 
     40 O2        -11.3499  -16.8631   -8.1949 O.3       1 <0>        -0.2850 
     41 O3        -12.4027  -13.5331   -8.3446 O.3       1 <0>        -0.2850 
     42 Cl1        -9.4041  -13.3055   -8.4961 Cl        1 <0>        -0.1800 
     43 Cl2       -14.4464  -11.7061   -7.1143 Cl        1 <0>        -0.1800 
     44 H1         -2.8709  -11.5199   -6.4946 H         1 <0>         0.0600 
     45 H2         -3.8769  -10.2011   -7.1106 H         1 <0>         0.0600 
     46 H3         -2.1679  -10.2588   -7.5002 H         1 <0>         0.0600 
     47 H4         -9.2513   -8.6817   -6.0942 H         1 <0>         0.0600 
     48 H5        -10.6836   -7.8976   -6.7551 H         1 <0>         0.0600 
     49 H6        -10.6966   -8.5152   -5.0980 H         1 <0>         0.0600 
     50 H7         -6.4286  -12.5991   -7.7002 H         1 <0>         0.0600 
     51 H8         -5.2880  -13.7702   -7.0216 H         1 <0>         0.0600 
     52 H9         -5.1739  -12.0706   -6.6105 H         1 <0>         0.0600 
     53 H10        -2.2318  -12.0583  -11.7971 H         1 <0>         0.1150 
     54 H11        -1.7300  -10.8399   -9.7152 H         1 <0>         0.1150 
     55 H12        -4.1476  -13.6065  -11.9053 H         1 <0>         0.1150 
     56 H13        -7.4463  -18.9297   -9.1017 H         1 <0>         0.1150 
     57 H14        -9.1555  -16.5409  -12.2701 H         1 <0>         0.1150 
     58 H15        -9.3079  -18.2998   -7.6289 H         1 <0>         0.1150 
     59 H16       -11.0583  -16.0105  -10.8503 H         1 <0>         0.1150 
     60 H17        -8.9271  -10.7117   -7.3791 H         1 <0>         0.1150 
     61 H18       -12.8502   -9.6132   -6.0507 H         1 <0>         0.1150 
     62 H19        -3.3570  -16.1038   -8.0919 H         1 <0>         0.0600 
     63 H20        -5.1861  -16.0426   -7.8847 H         1 <0>         0.0600 
     64 H21        -5.4574  -18.0701   -9.2935 H         1 <0>         0.0600 
     65 H22        -3.6332  -18.2119   -9.3982 H         1 <0>         0.0600 
     66 H23        -7.1544  -20.2856  -11.3834 H         1 <0>         0.0600 
     67 H24        -8.0831  -19.6511  -12.7154 H         1 <0>         0.0600 
     68 H25        -4.9702  -21.3093  -11.8452 H         1 <0>         0.0600 
     69 H26        -4.0895  -20.9853  -13.3132 H         1 <0>         0.0600 
     70 H27        -3.0760  -18.5059  -13.5526 H         1 <0>         0.0600 
     71 H28        -3.2257  -17.4894  -12.1500 H         1 <0>         0.0600 
     72 H29       -12.5433  -15.6740   -9.5048 H         1 <0>         0.0300 
     73 H30       -13.3485  -16.4618   -8.2004 H         1 <0>         0.0300 
     74 H31       -12.9936  -14.7245   -6.7661 H         1 <0>         0.0300 
     75 H32       -11.2764  -14.7411   -7.0963 H         1 <0>         0.0300 
     76 H33        -6.3821  -14.4947   -9.0033 H         1 <0>         0.0600 
     77 H34        -6.7268  -13.7394  -10.4991 H         1 <0>         0.0600 
     78 H35        -3.5066  -15.9654  -10.5097 H         1 <0>         0.0600 
     79 H36        -6.4230  -20.7569  -13.8622 H         1 <0>         0.0600 
     80 H37        -4.9123  -16.9037  -13.9466 H         1 <0>         0.0600 
     81 H38        -4.4533  -19.1788  -11.0581 H         1 <0>         0.3100 
     82 H39        -3.0506  -19.8327  -11.6049 H         1 <0>         0.3100 
     83 H40        -6.5300  -18.4629  -14.5462 H         1 <0>         0.3100 
     84 H41        -5.0128  -19.1259  -14.7651 H         1 <0>         0.3100 
@<TRIPOS>BOND
     1    1   21 1    
     2    1   44 1    
     3    1   45 1    
     4    1   46 1    
     5    2   22 1    
     6    2   47 1    
     7    2   48 1    
     8    2   49 1    
     9    3   23 1    
    10    3   50 1    
    11    3   51 1    
    12    3   52 1    
    13    4    5 ar   
    14    4    6 ar   
    15    4   53 1    
    16    5   21 ar   
    17    5   54 1    
    18    6   26 ar   
    19    6   55 1    
    20    7    9 ar   
    21    7   24 ar   
    22    7   56 1    
    23    8   10 ar   
    24    8   24 ar   
    25    8   57 1    
    26    9   25 ar   
    27    9   58 1    
    28   10   25 ar   
    29   10   59 1    
    30   11   22 ar   
    31   11   27 ar   
    32   11   60 1    
    33   12   22 ar   
    34   12   28 ar   
    35   12   61 1    
    36   13   14 1    
    37   13   30 1    
    38   13   62 1    
    39   13   63 1    
    40   14   30 1    
    41   14   64 1    
    42   14   65 1    
    43   15   31 1    
    44   15   33 1    
    45   15   66 1    
    46   15   67 1    
    47   16   31 1    
    48   16   36 1    
    49   16   68 1    
    50   16   69 1    
    51   17   32 1    
    52   17   36 1    
    53   17   70 1    
    54   17   71 1    
    55   18   19 1    
    56   18   40 1    
    57   18   72 1    
    58   18   73 1    
    59   19   41 1    
    60   19   74 1    
    61   19   75 1    
    62   20   26 1    
    63   20   38 1    
    64   20   76 1    
    65   20   77 1    
    66   21   23 ar   
    67   23   26 ar   
    68   24   33 1    
    69   25   40 1    
    70   27   29 ar   
    71   27   42 1    
    72   28   29 ar   
    73   28   43 1    
    74   29   41 1    
    75   30   38 1    
    76   30   78 1    
    77   31   37 1    
    78   31   79 1    
    79   32   34 1    
    80   32   37 1    
    81   32   80 1    
    82   33   34 2    
    83   34   35 1    
    84   35   38 am   BACKBONE|DICT|INTERRES
    85   35   39 2    
    86   36   81 1    
    87   36   82 1    
    88   37   83 1    
    89   37   84 1    
@<TRIPOS>SUBSTRUCTURE
     1 <0>         1 GROUP             0       ****    0 ROOT    
@<TRIPOS>MOLECULE
reni-ligand
84   89    1
SMALL
USER_CHARGES


@<TRIPOS>ATOM
      1 C1         -1.5173  -11.7963   -9.8144 C.3       1 <0>        -0.0650 
      2 C2        -10.3173   -9.1179   -6.2721 C.3       1 <0>        -0.0650 
      3 C3         -4.0705  -12.3846  -11.2113 C.3       1 <0>        -0.0650 
      4 C4         -3.1147  -14.2723   -7.4108 C.ar      1 <0>        -0.1150 
      5 C5         -2.2107  -13.3883   -8.0128 C.ar      1 <0>        -0.1150 
      6 C6         -4.3617  -14.5105   -8.0055 C.ar      1 <0>        -0.1150 
      7 C7         -8.3789  -17.8478   -9.0000 C.ar      1 <0>        -0.1150 
      8 C8         -9.8263  -17.1866  -10.8417 C.ar      1 <0>        -0.1150 
      9 C9         -9.3588  -17.4191   -8.0873 C.ar      1 <0>        -0.1150 
     10 C10       -10.8053  -16.7558   -9.9278 C.ar      1 <0>        -0.1150 
     11 C11       -10.0489  -11.3079   -7.5275 C.ar      1 <0>        -0.1150 
     12 C12       -12.2623  -10.6230   -6.8513 C.ar      1 <0>        -0.1150 
     13 C13        -7.5557  -15.1220  -13.0335 C.3       1 <0>        -0.1200 
     14 C14        -7.3633  -13.7244  -12.5271 C.3       1 <0>        -0.1200 
     15 C15        -7.9939  -19.2762  -12.2996 C.3       1 <0>        -0.1200 
     16 C16        -5.9652  -20.8698  -12.5646 C.3       1 <0>         0.1700 
     17 C17        -4.3546  -19.0902  -11.9663 C.3       1 <0>         0.1700 
     18 C18       -12.8346  -16.2139   -7.8872 C.3       1 <0>         0.1400 
     19 C19       -13.1212  -14.7349   -7.6240 C.3       1 <0>         0.1400 
     20 C20        -6.0916  -14.2365   -9.8067 C.3       1 <0>         0.0650 
     21 C21        -2.5358  -12.7597   -9.2293 C.ar      1 <0>        -0.1150 
     22 C22       -10.8818  -10.3819   -6.8836 C.ar      1 <0>        -0.1150 
     23 C23        -3.7732  -13.0425   -9.8712 C.ar      1 <0>        -0.1150 
     24 C24        -8.5981  -17.7106  -10.3865 C.ar      1 <0>         0.0000 
     25 C25       -10.5834  -16.8769   -8.5324 C.ar      1 <0>         0.0850 
     26 C26        -4.7030  -13.9214   -9.2418 C.ar      1 <0>        -0.1150 
     27 C27       -10.5778  -12.4890   -8.0930 C.ar      1 <0>         0.1800 
     28 C28       -12.8147  -11.7537   -7.4757 C.ar      1 <0>         0.1800 
     29 C29       -11.9694  -12.7321   -8.0558 C.ar      1 <0>         0.0850 
     30 C30        -6.3313  -14.7955  -12.2060 C.3       1 <0>        -0.0149 
     31 C31        -6.8704  -19.7966  -13.2247 C.3       1 <0>         0.2300 
     32 C32        -5.3329  -18.0471  -12.5501 C.3       1 <0>         0.2300 
     33 C33        -7.5843  -18.1285  -11.3823 C.2       1 <0>         0.0000 
     34 C34        -6.3447  -17.5718  -11.5020 C.2       1 <0>        -0.0567 
     35 C35        -5.8912  -16.5705  -10.5421 C.2       1 <0>         0.5567 
     36 N1         -5.0903  -20.2950  -11.5126 N.4       1 <0>        -0.2000 
     37 N2         -6.0490  -18.6618  -13.6926 N.4       1 <0>        -0.2000 
     38 N3         -6.1715  -15.2771  -10.8529 N.am      1 <0>        -0.1151 
     39 O1         -5.3860  -16.9142   -9.4733 O.2       1 <0>        -0.5000 
     40 O2        -11.4807  -16.5057   -7.5517 O.3       1 <0>        -0.2850 
     41 O3        -12.4578  -13.9091   -8.5768 O.3       1 <0>        -0.2850 
     42 Cl1        -9.5028  -13.6377   -8.8086 Cl        1 <0>        -0.1800 
     43 Cl2       -14.5313  -11.8584   -7.5705 Cl        1 <0>        -0.1800 
     44 H1         -1.9747  -10.9621  -10.3453 H         1 <0>         0.0600 
     45 H2         -0.8565  -12.3314  -10.4913 H         1 <0>         0.0600 
     46 H3         -0.8984  -11.3686   -9.0240 H         1 <0>         0.0600 
     47 H4         -9.2474   -9.2150   -6.0945 H         1 <0>         0.0600 
     48 H5        -10.4811   -8.2698   -6.9371 H         1 <0>         0.0600 
     49 H6        -10.8005   -8.9060   -5.3191 H         1 <0>         0.0600 
     50 H7         -5.0435  -12.6247  -11.6215 H         1 <0>         0.0600 
     51 H8         -4.0472  -11.3048  -11.1034 H         1 <0>         0.0600 
     52 H9         -3.3175  -12.6706  -11.9466 H         1 <0>         0.0600 
     53 H10        -2.8550  -14.7673   -6.4917 H         1 <0>         0.1150 
     54 H11        -1.2632  -13.1933   -7.5336 H         1 <0>         0.1150 
     55 H12        -5.0559  -15.1728   -7.5093 H         1 <0>         0.1150 
     56 H13        -7.4582  -18.2707   -8.6285 H         1 <0>         0.1150 
     57 H14       -10.0180  -17.0942  -11.9007 H         1 <0>         0.1150 
     58 H15        -9.1772  -17.5209   -7.0278 H         1 <0>         0.1150 
     59 H16       -11.7069  -16.3208  -10.3296 H         1 <0>         0.1150 
     60 H17        -8.9836  -11.1321   -7.5651 H         1 <0>         0.1150 
     61 H18       -12.9192   -9.8897   -6.4086 H         1 <0>         0.1150 
     62 H19        -7.3919  -15.3016  -14.0930 H         1 <0>         0.0600 
     63 H20        -8.3705  -15.6839  -12.5904 H         1 <0>         0.0600 
     64 H21        -8.0487  -13.3977  -11.7482 H         1 <0>         0.0600 
     65 H22        -7.0968  -12.9632  -13.2557 H         1 <0>         0.0600 
     66 H23        -8.3914  -20.0967  -11.6991 H         1 <0>         0.0600 
     67 H24        -8.8267  -18.9064  -12.8930 H         1 <0>         0.0600 
     68 H25        -6.5670  -21.6743  -12.1397 H         1 <0>         0.0600 
     69 H26        -5.3295  -21.3285  -13.3250 H         1 <0>         0.0600 
     70 H27        -3.6181  -19.3813  -12.7185 H         1 <0>         0.0600 
     71 H28        -3.7932  -18.6725  -11.1297 H         1 <0>         0.0600 
     72 H29       -13.1566  -16.5200   -8.8799 H         1 <0>         0.0300 
     73 H30       -13.4484  -16.8020   -7.2051 H         1 <0>         0.0300 
     74 H31       -14.1950  -14.5729   -7.6949 H         1 <0>         0.0300 
     75 H32       -12.8313  -14.4919   -6.5985 H         1 <0>         0.0300 
     76 H33        -6.7304  -14.5571   -8.9812 H         1 <0>         0.0600 
     77 H34        -6.5478  -13.3055  -10.1229 H         1 <0>         0.0600 
     78 H35        -5.4020  -14.7239  -12.7703 H         1 <0>         0.0600 
     79 H36        -7.3458  -20.2522  -14.0932 H         1 <0>         0.0600 
     80 H37        -4.7736  -17.1892  -12.9286 H         1 <0>         0.0600 
     81 H38        -5.6679  -20.0325  -10.7257 H         1 <0>         0.3100 
     82 H39        -4.4295  -20.9961  -11.2013 H         1 <0>         0.3100 
     83 H40        -6.6750  -17.9954  -14.1441 H         1 <0>         0.3100 
     84 H41        -5.3784  -18.9867  -14.3752 H         1 <0>         0.3100 
@<TRIPOS>BOND
     1    1   21 1    
     2    1   44 1    
     3    1   45 1    
     4    1   46 1    
     5    2   22 1    
     6    2   47 1    
     7    2   48 1    
     8    2   49 1    
     9    3   23 1    
    10    3   50 1    
    11    3   51 1    
    12    3   52 1    
    13    4    5 ar   
    14    4    6 ar   
    15    4   53 1    
    16    5   21 ar   
    17    5   54 1    
    18    6   26 ar   
    19    6   55 1    
    20    7    9 ar   
    21    7   24 ar   
    22    7   56 1    
    23    8   10 ar   
    24    8   24 ar   
    25    8   57 1    
    26    9   25 ar   
    27    9   58 1    
    28   10   25 ar   
    29   10   59 1    
    30   11   22 ar   
    31   11   27 ar   
    32   11   60 1    
    33   12   22 ar   
    34   12   28 ar   
    35   12   61 1    
    36   13   14 1    
    37   13   30 1    
    38   13   62 1    
    39   13   63 1    
    40   14   30 1    
    41   14   64 1    
    42   14   65 1    
    43   15   31 1    
    44   15   33 1    
    45   15   66 1    
    46   15   67 1    
    47   16   31 1    
    48   16   36 1    
    49   16   68 1    
    50   16   69 1    
    51   17   32 1    
    52   17   36 1    
    53   17   70 1    
    54   17   71 1    
    55   18   19 1    
    56   18   40 1    
    57   18   72 1    
    58   18   73 1    
    59   19   41 1    
    60   19   74 1    
    61   19   75 1    
    62   20   26 1    
    63   20   38 1    
    64   20   76 1    
    65   20   77 1    
    66   21   23 ar   
    67   23   26 ar   
    68   24   33 1    
    69   25   40 1    
    70   27   29 ar   
    71   27   42 1    
    72   28   29 ar   
    73   28   43 1    
    74   29   41 1    
    75   30   38 1    
    76   30   78 1    
    77   31   37 1    
    78   31   79 1    
    79   32   34 1    
    80   32   37 1    
    81   32   80 1    
    82   33   34 2    
    83   34   35 1    
    84   35   38 am   BACKBONE|DICT|INTERRES
    85   35   39 2    
    86   36   81 1    
    87   36   82 1    
    88   37   83 1    
    89   37   84 1    
@<TRIPOS>SUBSTRUCTURE
     1 <0>         1 GROUP             0       ****    0 ROOT    
@<TRIPOS>MOLECULE
reni-ligand
84   89    1
SMALL
USER_CHARGES


@<TRIPOS>ATOM
      1 C1         -3.2428  -10.3598   -6.9402 C.3       1 <0>        -0.0650 
      2 C2        -10.3336   -8.7107   -6.1228 C.3       1 <0>        -0.0650 
      3 C3         -5.7886  -11.9141   -7.1381 C.3       1 <0>        -0.0650 
      4 C4         -2.3651  -12.9106   -9.6432 C.ar      1 <0>        -0.1150 
      5 C5         -2.2793  -11.8540   -8.7230 C.ar      1 <0>        -0.1150 
      6 C6         -3.5635  -13.6326   -9.7724 C.ar      1 <0>        -0.1150 
      7 C7         -8.4903  -17.7787   -8.6608 C.ar      1 <0>        -0.1150 
      8 C8         -9.7479  -16.7471  -10.4677 C.ar      1 <0>        -0.1150 
      9 C9         -9.5127  -17.4297   -7.7619 C.ar      1 <0>        -0.1150 
     10 C10       -10.7712  -16.3957   -9.5660 C.ar      1 <0>        -0.1150 
     11 C11        -9.9994  -10.9399   -7.2930 C.ar      1 <0>        -0.1150 
     12 C12       -12.2052  -10.3514   -6.4931 C.ar      1 <0>        -0.1150 
     13 C13        -7.3295  -14.6961  -12.5830 C.3       1 <0>        -0.1200 
     14 C14        -7.2739  -13.3584  -11.8959 C.3       1 <0>        -0.1200 
     15 C15        -7.9733  -18.9032  -11.9775 C.3       1 <0>        -0.1200 
     16 C16        -5.9711  -20.4644  -12.4741 C.3       1 <0>         0.1700 
     17 C17        -4.3571  -18.7826  -11.6586 C.3       1 <0>         0.1700 
     18 C18       -12.8969  -15.9974   -7.6077 C.3       1 <0>         0.1400 
     19 C19       -12.9967  -14.5171   -7.2346 C.3       1 <0>         0.1400 
     20 C20        -6.0217  -14.0513   -9.1623 C.3       1 <0>         0.0650 
     21 C21        -3.3842  -11.5197   -7.9134 C.ar      1 <0>        -0.1150 
     22 C22       -10.8467  -10.0378   -6.6318 C.ar      1 <0>        -0.1150 
     23 C23        -4.5930  -12.2578   -8.0275 C.ar      1 <0>        -0.1150 
     24 C24        -8.5939  -17.4196  -10.0178 C.ar      1 <0>         0.0000 
     25 C25       -10.6641  -16.7469   -8.1993 C.ar      1 <0>         0.0850 
     26 C26        -4.6937  -13.3063   -8.9858 C.ar      1 <0>        -0.1150 
     27 C27       -10.5114  -12.1630   -7.7786 C.ar      1 <0>         0.1800 
     28 C28       -12.7396  -11.5273   -7.0490 C.ar      1 <0>         0.1800 
     29 C29       -11.8823  -12.4763   -7.6614 C.ar      1 <0>         0.0850 
     30 C30        -6.2114  -14.4010  -11.5991 C.3       1 <0>        -0.0149 
     31 C31        -6.8759  -19.3160  -12.9876 C.3       1 <0>         0.2300 
     32 C32        -5.3093  -17.6650  -12.1431 C.3       1 <0>         0.2300 
     33 C33        -7.5630  -17.8052  -11.0020 C.2       1 <0>         0.0000 
     34 C34        -6.3172  -17.2554  -11.0686 C.2       1 <0>        -0.0567 
     35 C35        -5.8611  -16.3144  -10.0520 C.2       1 <0>         0.5567 
     36 N1         -5.1082  -20.0234  -11.3517 N.4       1 <0>        -0.2000 
     37 N2         -6.0490  -18.1418  -13.3336 N.4       1 <0>        -0.2000 
     38 N3         -6.1437  -15.0058  -10.2825 N.am      1 <0>        -0.1151 
     39 O1         -5.3319  -16.7109   -9.0126 O.2       1 <0>        -0.5000 
     40 O2        -11.6223  -16.5054   -7.2393 O.3       1 <0>        -0.2850 
     41 O3        -12.3179  -13.6835   -8.1657 O.3       1 <0>        -0.2850 
     42 Cl1        -9.4338  -13.3058   -8.4934 Cl        1 <0>        -0.1800 
     43 Cl2       -14.4532  -11.7056   -7.0217 Cl        1 <0>        -0.1800 
     44 H1         -3.2503  -10.7218   -5.9123 H         1 <0>         0.0600 
     45 H2         -4.0585   -9.6477   -7.0696 H         1 <0>         0.0600 
     46 H3         -2.3081   -9.8202   -7.0946 H         1 <0>         0.0600 
     47 H4         -9.2492   -8.7035   -6.0944 H         1 <0>         0.0600 
     48 H5        -10.6674   -7.9044   -6.7776 H         1 <0>         0.0600 
     49 H6        -10.7005   -8.5140   -5.1152 H         1 <0>         0.0600 
     50 H7         -6.5043  -11.3058   -7.6909 H         1 <0>         0.0600 
     51 H8         -6.3034  -12.8077   -6.7881 H         1 <0>         0.0600 
     52 H9         -5.5057  -11.3666   -6.2412 H         1 <0>         0.0600 
     53 H10        -1.5124  -13.1598  -10.2578 H         1 <0>         0.1150 
     54 H11        -1.3545  -11.3015   -8.6415 H         1 <0>         0.1150 
     55 H12        -3.5957  -14.4347  -10.4925 H         1 <0>         0.1150 
     56 H13        -7.6480  -18.3394   -8.2988 H         1 <0>         0.1150 
     57 H14        -9.8623  -16.5046  -11.5135 H         1 <0>         0.1150 
     58 H15        -9.4309  -17.7196   -6.7262 H         1 <0>         0.1150 
     59 H16       -11.6239  -15.8607   -9.9550 H         1 <0>         0.1150 
     60 H17        -8.9494  -10.7120   -7.4073 H         1 <0>         0.1150 
     61 H18       -12.8676   -9.6147   -6.0714 H         1 <0>         0.1150 
     62 H19        -7.0786  -14.7174  -13.6424 H         1 <0>         0.0600 
     63 H20        -8.1335  -15.3607  -12.2891 H         1 <0>         0.0600 
     64 H21        -8.0471  -13.1651  -11.1552 H         1 <0>         0.0600 
     65 H22        -6.9822  -12.4970  -12.4941 H         1 <0>         0.0600 
     66 H23        -8.3143  -19.7728  -11.4146 H         1 <0>         0.0600 
     67 H24        -8.8568  -18.5369  -12.4931 H         1 <0>         0.0600 
     68 H25        -6.5701  -21.3212  -12.1638 H         1 <0>         0.0600 
     69 H26        -5.3297  -20.8148  -13.2847 H         1 <0>         0.0600 
     70 H27        -3.6068  -18.9990  -12.4230 H         1 <0>         0.0600 
     71 H28        -3.8130  -18.4629  -10.7683 H         1 <0>         0.0600 
     72 H29       -13.2072  -16.1958   -8.6318 H         1 <0>         0.0300 
     73 H30       -13.6150  -16.5452   -6.9958 H         1 <0>         0.0300 
     74 H31       -14.0493  -14.2629   -7.2514 H         1 <0>         0.0300 
     75 H32       -12.6396  -14.3611   -6.2146 H         1 <0>         0.0300 
     76 H33        -6.2600  -14.5488   -8.2199 H         1 <0>         0.0600 
     77 H34        -6.8019  -13.3055   -9.2725 H         1 <0>         0.0600 
     78 H35        -5.2457  -14.2133  -12.0624 H         1 <0>         0.0600 
     79 H36        -7.3712  -19.6605  -13.8968 H         1 <0>         0.0600 
     80 H37        -4.7276  -16.7911  -12.4416 H         1 <0>         0.0600 
     81 H38        -5.6931  -19.8484  -10.5464 H         1 <0>         0.3100 
     82 H39        -4.4581  -20.7628  -11.1168 H         1 <0>         0.3100 
     83 H40        -6.6851  -17.4291  -13.6796 H         1 <0>         0.3100 
     84 H41        -5.4085  -18.3802  -14.0772 H         1 <0>         0.3100 
@<TRIPOS>BOND
     1    1   21 1    
     2    1   44 1    
     3    1   45 1    
     4    1   46 1    
     5    2   22 1    
     6    2   47 1    
     7    2   48 1    
     8    2   49 1    
     9    3   23 1    
    10    3   50 1    
    11    3   51 1    
    12    3   52 1    
    13    4    5 ar   
    14    4    6 ar   
    15    4   53 1    
    16    5   21 ar   
    17    5   54 1    
    18    6   26 ar   
    19    6   55 1    
    20    7    9 ar   
    21    7   24 ar   
    22    7   56 1    
    23    8   10 ar   
    24    8   24 ar   
    25    8   57 1    
    26    9   25 ar   
    27    9   58 1    
    28   10   25 ar   
    29   10   59 1    
    30   11   22 ar   
    31   11   27 ar   
    32   11   60 1    
    33   12   22 ar   
    34   12   28 ar   
    35   12   61 1    
    36   13   14 1    
    37   13   30 1    
    38   13   62 1    
    39   13   63 1    
    40   14   30 1    
    41   14   64 1    
    42   14   65 1    
    43   15   31 1    
    44   15   33 1    
    45   15   66 1    
    46   15   67 1    
    47   16   31 1    
    48   16   36 1    
    49   16   68 1    
    50   16   69 1    
    51   17   32 1    
    52   17   36 1    
    53   17   70 1    
    54   17   71 1    
    55   18   19 1    
    56   18   40 1    
    57   18   72 1    
    58   18   73 1    
    59   19   41 1    
    60   19   74 1    
    61   19   75 1    
    62   20   26 1    
    63   20   38 1    
    64   20   76 1    
    65   20   77 1    
    66   21   23 ar   
    67   23   26 ar   
    68   24   33 1    
    69   25   40 1    
    70   27   29 ar   
    71   27   42 1    
    72   28   29 ar   
    73   28   43 1    
    74   29   41 1    
    75   30   38 1    
    76   30   78 1    
    77   31   37 1    
    78   31   79 1    
    79   32   34 1    
    80   32   37 1    
    81   32   80 1    
    82   33   34 2    
    83   34   35 1    
    84   35   38 am   BACKBONE|DICT|INTERRES
    85   35   39 2    
    86   36   81 1    
    87   36   82 1    
    88   37   83 1    
    89   37   84 1    
@<TRIPOS>SUBSTRUCTURE
     1 <0>         1 GROUP             0       ****    0 ROOT    
@<TRIPOS>MOLECULE
reni-ligand
84   89    1
SMALL
USER_CHARGES


@<TRIPOS>ATOM
      1 C1         -4.3253  -10.5817   -6.7061 C.3       1 <0>        -0.0650 
      2 C2        -10.5286   -9.1142   -5.9122 C.3       1 <0>        -0.0650 
      3 C3         -6.6565  -12.3505   -7.5268 C.3       1 <0>        -0.0650 
      4 C4         -2.5485  -13.3805   -8.5842 C.ar      1 <0>        -0.1150 
      5 C5         -2.8114  -12.2148   -7.8509 C.ar      1 <0>        -0.1150 
      6 C6         -3.6072  -14.2101   -8.9822 C.ar      1 <0>        -0.1150 
      7 C7         -8.0990  -18.0545   -9.1614 C.ar      1 <0>        -0.1150 
      8 C8         -9.2508  -17.4904  -11.2214 C.ar      1 <0>        -0.1150 
      9 C9         -9.1900  -17.5635   -8.4218 C.ar      1 <0>        -0.1150 
     10 C10       -10.3636  -17.0443  -10.4892 C.ar      1 <0>        -0.1150 
     11 C11       -12.5364  -10.5052   -6.5630 C.ar      1 <0>        -0.1150 
     12 C12       -10.3490  -11.2392   -7.2937 C.ar      1 <0>        -0.1150 
     13 C13        -6.6938  -15.1936  -12.7031 C.3       1 <0>        -0.1200 
     14 C14        -7.0417  -13.9995  -11.8421 C.3       1 <0>        -0.1200 
     15 C15        -7.1894  -19.3484  -12.5153 C.3       1 <0>        -0.1200 
     16 C16        -5.1495  -20.8991  -12.8415 C.3       1 <0>         0.1700 
     17 C17        -3.6453  -19.3153  -11.6924 C.3       1 <0>         0.1700 
     18 C18       -12.3830  -15.8139   -8.9173 C.3       1 <0>         0.1400 
     19 C19       -12.9766  -14.7899   -7.9467 C.3       1 <0>         0.1400 
     20 C20        -6.0737  -14.8669   -9.0295 C.3       1 <0>         0.0650 
     21 C21        -4.1327  -11.8702   -7.4928 C.ar      1 <0>        -0.1150 
     22 C22       -11.1446  -10.3144   -6.5963 C.ar      1 <0>        -0.1150 
     23 C23        -5.2137  -12.7103   -7.8925 C.ar      1 <0>        -0.1150 
     24 C24        -8.0979  -17.9685  -10.5698 C.ar      1 <0>         0.0000 
     25 C25       -10.3210  -17.0293   -9.0727 C.ar      1 <0>         0.0850 
     26 C26        -4.9476  -13.8933   -8.6456 C.ar      1 <0>        -0.1150 
     27 C27       -13.1331  -11.5734   -7.2479 C.ar      1 <0>         0.1800 
     28 C28       -10.9308  -12.3560   -7.9262 C.ar      1 <0>         0.1800 
     29 C29       -12.3375  -12.5182   -7.9230 C.ar      1 <0>         0.0850 
     30 C30        -5.8448  -14.8701  -11.4784 C.3       1 <0>        -0.0149 
     31 C31        -5.9635  -19.6964  -13.3873 C.3       1 <0>         0.2300 
     32 C32        -4.5230  -18.1476  -12.2034 C.3       1 <0>         0.2300 
     33 C33        -6.9240  -18.3376  -11.4026 C.2       1 <0>         0.0000 
     34 C34        -5.6703  -17.8120  -11.2492 C.2       1 <0>        -0.0567 
     35 C35        -5.3606  -16.9055  -10.1488 C.2       1 <0>         0.5567 
     36 N1         -4.4372  -20.5632  -11.5864 N.4       1 <0>        -0.2000 
     37 N2         -5.0944  -18.5056  -13.5214 N.4       1 <0>        -0.2000 
     38 N3         -5.8787  -15.6553  -10.2574 N.am      1 <0>        -0.1151 
     39 O1         -4.7747  -17.2999   -9.1386 O.2       1 <0>        -0.5000 
     40 O2        -11.3192  -16.5080   -8.2782 O.3       1 <0>        -0.2850 
     41 O3        -12.9569  -13.5313   -8.6040 O.3       1 <0>        -0.2850 
     42 Cl1       -14.8488  -11.7044   -7.2953 Cl        1 <0>        -0.1800 
     43 Cl2        -9.9070  -13.5126   -8.6962 Cl        1 <0>        -0.1800 
     44 H1         -5.1827  -10.6199   -6.0290 H         1 <0>         0.0600 
     45 H2         -4.4323   -9.7434   -7.3979 H         1 <0>         0.0600 
     46 H3         -3.4467  -10.3740   -6.0879 H         1 <0>         0.0600 
     47 H4        -11.0491   -8.1991   -6.2059 H         1 <0>         0.0600 
     48 H5        -10.6011   -9.2219   -4.8278 H         1 <0>         0.0600 
     49 H6         -9.4714   -9.0045   -6.1685 H         1 <0>         0.0600 
     50 H7         -7.3170  -12.5049   -8.3826 H         1 <0>         0.0600 
     51 H8         -6.9993  -12.9742   -6.6958 H         1 <0>         0.0600 
     52 H9         -6.7928  -11.3067   -7.2549 H         1 <0>         0.0600 
     53 H10        -1.5298  -13.6388   -8.8456 H         1 <0>         0.1150 
     54 H11        -1.9874  -11.5818   -7.5527 H         1 <0>         0.1150 
     55 H12        -3.3681  -15.1030   -9.5333 H         1 <0>         0.1150 
     56 H13        -7.2505  -18.4608   -8.6369 H         1 <0>         0.1150 
     57 H14        -9.2889  -17.4280  -12.2968 H         1 <0>         0.1150 
     58 H15        -9.1454  -17.5861   -7.3425 H         1 <0>         0.1150 
     59 H16       -11.2215  -16.6986  -11.0527 H         1 <0>         0.1150 
     60 H17       -13.1707   -9.7746   -6.0922 H         1 <0>         0.1150 
     61 H18        -9.2782  -11.1084   -7.3057 H         1 <0>         0.1150 
     62 H19        -6.2421  -14.9867  -13.6778 H         1 <0>         0.0600 
     63 H20        -7.4081  -16.0176  -12.6839 H         1 <0>         0.0600 
     64 H21        -7.9549  -14.0842  -11.2485 H         1 <0>         0.0600 
     65 H22        -6.8357  -13.0025  -12.2441 H         1 <0>         0.0600 
     66 H23        -7.6402  -20.2484  -12.0930 H         1 <0>         0.0600 
     67 H24        -7.9457  -18.9067  -13.1525 H         1 <0>         0.0600 
     68 H25        -5.8001  -21.7589  -12.6696 H         1 <0>         0.0600 
     69 H26        -4.4071  -21.2122  -13.5805 H         1 <0>         0.0600 
     70 H27        -2.7998  -19.4732  -12.3703 H         1 <0>         0.0600 
     71 H28        -3.2270  -19.0877  -10.7120 H         1 <0>         0.0600 
     72 H29       -12.0432  -15.2604   -9.7966 H         1 <0>         0.0300 
     73 H30       -13.1305  -16.5282   -9.2624 H         1 <0>         0.0300 
     74 H31       -14.0027  -15.0489   -7.7053 H         1 <0>         0.0300 
     75 H32       -12.4244  -14.7660   -7.0105 H         1 <0>         0.0300 
     76 H33        -6.2407  -15.5186   -8.1642 H         1 <0>         0.0600 
     77 H34        -7.0258  -14.3659   -9.1628 H         1 <0>         0.0600 
     78 H35        -4.8679  -14.4317  -11.7024 H         1 <0>         0.0600 
     79 H36        -6.3200  -19.9622  -14.3851 H         1 <0>         0.0600 
     80 H37        -3.8952  -17.2628  -12.3440 H         1 <0>         0.0600 
     81 H38        -5.1221  -20.4416  -10.8513 H         1 <0>         0.3100 
     82 H39        -3.8296  -21.3281  -11.3242 H         1 <0>         0.3100 
     83 H40        -5.6429  -17.7357  -13.8892 H         1 <0>         0.3100 
     84 H41        -4.3518  -18.7194  -14.1762 H         1 <0>         0.3100 
@<TRIPOS>BOND
     1    1   21 1    
     2    1   44 1    
     3    1   45 1    
     4    1   46 1    
     5    2   22 1    
     6    2   47 1    
     7    2   48 1    
     8    2   49 1    
     9    3   23 1    
    10    3   50 1    
    11    3   51 1    
    12    3   52 1    
    13    4    5 ar   
    14    4    6 ar   
    15    4   53 1    
    16    5   21 ar   
    17    5   54 1    
    18    6   26 ar   
    19    6   55 1    
    20    7    9 ar   
    21    7   24 ar   
    22    7   56 1    
    23    8   10 ar   
    24    8   24 ar   
    25    8   57 1    
    26    9   25 ar   
    27    9   58 1    
    28   10   25 ar   
    29   10   59 1    
    30   11   22 ar   
    31   11   27 ar   
    32   11   60 1    
    33   12   22 ar   
    34   12   28 ar   
    35   12   61 1    
    36   13   14 1    
    37   13   30 1    
    38   13   62 1    
    39   13   63 1    
    40   14   30 1    
    41   14   64 1    
    42   14   65 1    
    43   15   31 1    
    44   15   33 1    
    45   15   66 1    
    46   15   67 1    
    47   16   31 1    
    48   16   36 1    
    49   16   68 1    
    50   16   69 1    
    51   17   32 1    
    52   17   36 1    
    53   17   70 1    
    54   17   71 1    
    55   18   19 1    
    56   18   40 1    
    57   18   72 1    
    58   18   73 1    
    59   19   41 1    
    60   19   74 1    
    61   19   75 1    
    62   20   26 1    
    63   20   38 1    
    64   20   76 1    
    65   20   77 1    
    66   21   23 ar   
    67   23   26 ar   
    68   24   33 1    
    69   25   40 1    
    70   27   29 ar   
    71   27   42 1    
    72   28   29 ar   
    73   28   43 1    
    74   29   41 1    
    75   30   38 1    
    76   30   78 1    
    77   31   37 1    
    78   31   79 1    
    79   32   34 1    
    80   32   37 1    
    81   32   80 1    
    82   33   34 2    
    83   34   35 1    
    84   35   38 am   BACKBONE|DICT|INTERRES
    85   35   39 2    
    86   36   81 1    
    87   36   82 1    
    88   37   83 1    
    89   37   84 1    
@<TRIPOS>SUBSTRUCTURE
     1 <0>         1 GROUP             0       ****    0 ROOT    
