@<TRIPOS>MOLECULE
rock1-ligand
40   41    1
SMALL
USER_CHARGES


@<TRIPOS>ATOM
      1 C1         55.3180  103.2419   34.0621 C.3       1 <0>        -0.1800 
      2 C2         50.5160  100.3744   26.2064 C.ar      1 <0>        -0.4470 
      3 C3         50.9184   98.2896   27.3701 C.ar      1 <0>        -0.4470 
      4 C4         50.1189   99.6131   25.0943 C.ar      1 <0>         0.4730 
      5 C5         50.5184   97.6223   26.1982 C.ar      1 <0>         0.4730 
      6 C6         52.0963  103.8646   32.0277 C.3       1 <0>        -0.1200 
      7 C7         53.8575  102.0802   31.8074 C.3       1 <0>        -0.1200 
      8 C8         51.5278  103.4648   30.6589 C.3       1 <0>        -0.1200 
      9 C9         53.3258  101.7191   30.4104 C.3       1 <0>        -0.1200 
     10 C10        50.9194   99.6978   27.3817 C.ar      1 <0>         0.3770 
     11 C11        53.6055  103.5693   32.1390 C.3       1 <0>        -0.0600 
     12 C12        51.8139  101.9923   30.3103 C.3       1 <0>        -0.0600 
     13 C13        54.1309  104.0459   33.5204 C.3       1 <0>         0.2500 
     14 C14        51.2418  101.6283   28.9301 C.2       1 <0>         0.5000 
     15 N1         54.5187  105.4651   33.4368 N.4       1 <0>        -0.3000 
     16 N2         50.1177   98.2648   25.0838 N.ar      1 <0>        -0.6780 
     17 N3         51.3502  100.3377   28.5738 N.am      1 <0>        -0.3850 
     18 O1         50.6795  102.4910   28.2540 O.2       1 <0>        -0.5000 
     19 H1         55.0402  102.2096   34.2784 H         1 <0>         0.0600 
     20 H2         55.7083  103.6649   34.9899 H         1 <0>         0.0600 
     21 H3         56.1185  103.2238   33.3281 H         1 <0>         0.0600 
     22 H4         50.5057  101.4497   26.1261 H         1 <0>         0.1550 
     23 H5         51.2241   97.7185   28.2338 H         1 <0>         0.1550 
     24 H6         49.7981  100.1040   24.1901 H         1 <0>         0.0120 
     25 H7         50.5141   96.5441   26.1584 H         1 <0>         0.0120 
     26 H8         51.5568  103.3241   32.8073 H         1 <0>         0.0600 
     27 H9         51.9173  104.9260   32.2038 H         1 <0>         0.0600 
     28 H10        54.9232  101.8538   31.8240 H         1 <0>         0.0600 
     29 H11        53.3942  101.4381   32.5575 H         1 <0>         0.0600 
     30 H12        50.4536  103.6480   30.6362 H         1 <0>         0.0600 
     31 H13        51.9604  104.1070   29.8921 H         1 <0>         0.0600 
     32 H14        53.8622  102.2985   29.6568 H         1 <0>         0.0600 
     33 H15        53.5451  100.6711   30.2064 H         1 <0>         0.0600 
     34 H16        54.1193  104.1384   31.3607 H         1 <0>         0.0600 
     35 H17        51.3178  101.3614   31.0467 H         1 <0>         0.0600 
     36 H18        53.3313  103.9685   34.2599 H         1 <0>         0.0600 
     37 H19        55.2696  105.5560   32.7560 H         1 <0>         0.3300 
     38 H20        53.7451  106.0452   33.0982 H         1 <0>         0.3300 
     39 H21        54.8098  105.8152   34.3335 H         1 <0>         0.3300 
     40 H22        51.7882   99.7318   29.2519 H         1 <0>         0.3000 
@<TRIPOS>BOND
     1    1   13 1    
     2    1   19 1    
     3    1   20 1    
     4    1   21 1    
     5    2    4 ar   
     6    2   10 ar   
     7    2   22 1    
     8    3    5 ar   
     9    3   10 ar   
    10    3   23 1    
    11    4   16 ar   
    12    4   24 1    
    13    5   16 ar   
    14    5   25 1    
    15    6    8 1    
    16    6   11 1    
    17    6   26 1    
    18    6   27 1    
    19    7    9 1    
    20    7   11 1    
    21    7   28 1    
    22    7   29 1    
    23    8   12 1    
    24    8   30 1    
    25    8   31 1    
    26    9   12 1    
    27    9   32 1    
    28    9   33 1    
    29   10   17 1    
    30   11   13 1    
    31   11   34 1    
    32   12   14 1    
    33   12   35 1    
    34   13   15 1    
    35   13   36 1    
    36   14   17 am   BACKBONE|DICT|INTERRES
    37   14   18 2    
    38   15   37 1    
    39   15   38 1    
    40   15   39 1    
    41   17   40 1    
@<TRIPOS>SUBSTRUCTURE
     1 <0>         1 GROUP             0       ****    0 ROOT    
@<TRIPOS>MOLECULE
rock1-ligand
40   41    1
SMALL
USER_CHARGES


@<TRIPOS>ATOM
      1 C1         53.6622  103.1129   34.6563 C.3       1 <0>        -0.1800 
      2 C2         50.4985  100.3858   26.1490 C.ar      1 <0>        -0.4470 
      3 C3         50.9185   98.3102   27.3242 C.ar      1 <0>        -0.4470 
      4 C4         50.1184   99.6140   25.0373 C.ar      1 <0>         0.4730 
      5 C5         50.5178   97.6333   26.1598 C.ar      1 <0>         0.4730 
      6 C6         51.9663  103.7517   32.0919 C.3       1 <0>        -0.1200 
      7 C7         53.8614  102.1395   31.6220 C.3       1 <0>        -0.1200 
      8 C8         51.3501  103.4279   30.7206 C.3       1 <0>        -0.1200 
      9 C9         53.2762  101.8600   30.2370 C.3       1 <0>        -0.1200 
     10 C10        50.8978   99.7181   27.3276 C.ar      1 <0>         0.3770 
     11 C11        53.4954  103.5617   32.0966 C.3       1 <0>        -0.0600 
     12 C12        51.7436  102.0103   30.2493 C.3       1 <0>        -0.0600 
     13 C13        54.1374  103.9422   33.4487 C.3       1 <0>         0.2500 
     14 C14        51.1409  101.6538   28.8836 C.2       1 <0>         0.5000 
     15 N1         55.5999  103.8650   33.3341 N.4       1 <0>        -0.3000 
     16 N2         50.1187   98.2654   25.0372 N.ar      1 <0>        -0.6780 
     17 N3         51.3076  100.3715   28.5152 N.am      1 <0>        -0.3850 
     18 O1         50.5216  102.4976   28.2373 O.2       1 <0>        -0.5000 
     19 H1         52.5918  103.2334   34.8290 H         1 <0>         0.0600 
     20 H2         54.1656  103.4344   35.5696 H         1 <0>         0.0600 
     21 H3         53.8614  102.0472   34.5341 H         1 <0>         0.0600 
     22 H4         50.4803  101.4626   26.0674 H         1 <0>         0.1550 
     23 H5         51.2261   97.7456   28.1906 H         1 <0>         0.1550 
     24 H6         49.8054  100.0979   24.1262 H         1 <0>         0.0120 
     25 H7         50.5194   96.5533   26.1264 H         1 <0>         0.0120 
     26 H8         51.5052  103.1085   32.8415 H         1 <0>         0.0600 
     27 H9         51.7360  104.7799   32.3708 H         1 <0>         0.0600 
     28 H10        54.9405  102.0072   31.5652 H         1 <0>         0.0600 
     29 H11        53.4982  101.3906   32.3251 H         1 <0>         0.0600 
     30 H12        50.2623  103.4898   30.7758 H         1 <0>         0.0600 
     31 H13        51.6714  104.1643   29.9824 H         1 <0>         0.0600 
     32 H14        53.7147  102.5455   29.5092 H         1 <0>         0.0600 
     33 H15        53.5697  100.8554   29.9275 H         1 <0>         0.0600 
     34 H16        53.8945  104.2599   31.3564 H         1 <0>         0.0600 
     35 H17        51.3357  101.2960   30.9648 H         1 <0>         0.0600 
     36 H18        53.8970  104.9872   33.6497 H         1 <0>         0.0600 
     37 H19        55.8690  102.9136   33.1277 H         1 <0>         0.3300 
     38 H20        55.8924  104.4676   32.5658 H         1 <0>         0.3300 
     39 H21        56.0323  104.1565   34.1951 H         1 <0>         0.3300 
     40 H22        51.7775   99.7839   29.1870 H         1 <0>         0.3000 
@<TRIPOS>BOND
     1    1   13 1    
     2    1   19 1    
     3    1   20 1    
     4    1   21 1    
     5    2    4 ar   
     6    2   10 ar   
     7    2   22 1    
     8    3    5 ar   
     9    3   10 ar   
    10    3   23 1    
    11    4   16 ar   
    12    4   24 1    
    13    5   16 ar   
    14    5   25 1    
    15    6    8 1    
    16    6   11 1    
    17    6   26 1    
    18    6   27 1    
    19    7    9 1    
    20    7   11 1    
    21    7   28 1    
    22    7   29 1    
    23    8   12 1    
    24    8   30 1    
    25    8   31 1    
    26    9   12 1    
    27    9   32 1    
    28    9   33 1    
    29   10   17 1    
    30   11   13 1    
    31   11   34 1    
    32   12   14 1    
    33   12   35 1    
    34   13   15 1    
    35   13   36 1    
    36   14   17 am   BACKBONE|DICT|INTERRES
    37   14   18 2    
    38   15   37 1    
    39   15   38 1    
    40   15   39 1    
    41   17   40 1    
@<TRIPOS>SUBSTRUCTURE
     1 <0>         1 GROUP             0       ****    0 ROOT    
@<TRIPOS>MOLECULE
rock1-ligand
40   41    1
SMALL
USER_CHARGES


@<TRIPOS>ATOM
      1 C1         55.3191  103.1995   33.9580 C.3       1 <0>        -0.1800 
      2 C2         50.9189   98.2647   27.2658 C.ar      1 <0>        -0.4470 
      3 C3         50.6533  100.4547   26.2574 C.ar      1 <0>        -0.4470 
      4 C4         50.3771   97.7221   26.0894 C.ar      1 <0>         0.4730 
      5 C5         50.1185   99.8094   25.1252 C.ar      1 <0>         0.4730 
      6 C6         52.6625  102.1353   32.7380 C.3       1 <0>        -0.1200 
      7 C7         53.8627  103.6452   31.1076 C.3       1 <0>        -0.1200 
      8 C8         51.7187  101.6833   31.6131 C.3       1 <0>        -0.1200 
      9 C9         52.9428  103.1663   29.9808 C.3       1 <0>        -0.1200 
     10 C10        51.0649   99.6610   27.3518 C.ar      1 <0>         0.3770 
     11 C11        53.1944  103.5642   32.4969 C.3       1 <0>        -0.0600 
     12 C12        52.4031  101.7505   30.2345 C.3       1 <0>        -0.0600 
     13 C13        54.0885  104.0739   33.6600 C.3       1 <0>         0.2500 
     14 C14        51.4383  101.3533   29.1107 C.2       1 <0>         0.5000 
     15 N1         54.5179  105.4657   33.4369 N.4       1 <0>        -0.3000 
     16 N2         49.9870   98.4694   25.0375 N.ar      1 <0>        -0.6780 
     17 N3         51.7074  100.1929   28.4940 N.am      1 <0>        -0.3850 
     18 O1         50.4784  102.0764   28.8367 O.2       1 <0>        -0.5000 
     19 H1         55.0402  102.1877   34.2508 H         1 <0>         0.0600 
     20 H2         55.9071  103.6070   34.7812 H         1 <0>         0.0600 
     21 H3         55.9767  103.1226   33.0927 H         1 <0>         0.0600 
     22 H4         51.2352   97.6150   28.0693 H         1 <0>         0.1550 
     23 H5         50.7632  101.5290   26.2635 H         1 <0>         0.1550 
     24 H6         50.2614   96.6543   25.9861 H         1 <0>         0.0120 
     25 H7         49.8104  100.3765   24.2569 H         1 <0>         0.0120 
     26 H8         53.4884  101.4252   32.7972 H         1 <0>         0.0600 
     27 H9         52.1430  102.0851   33.6958 H         1 <0>         0.0600 
     28 H10        54.1188  104.6770   30.8847 H         1 <0>         0.0600 
     29 H11        54.7907  103.0717   31.0876 H         1 <0>         0.0600 
     30 H12        51.3796  100.6651   31.8113 H         1 <0>         0.0600 
     31 H13        50.8281  102.3127   31.6216 H         1 <0>         0.0600 
     32 H14        52.1132  103.8655   29.8767 H         1 <0>         0.0600 
     33 H15        53.4903  103.1969   29.0371 H         1 <0>         0.0600 
     34 H16        52.3243  104.2231   32.4642 H         1 <0>         0.0600 
     35 H17        53.2491  101.0604   30.2350 H         1 <0>         0.0600 
     36 H18        53.4724  104.0916   34.5599 H         1 <0>         0.0600 
     37 H19        55.1975  105.4817   32.6801 H         1 <0>         0.3300 
     38 H20        53.7359  106.0608   33.1469 H         1 <0>         0.3300 
     39 H21        54.9217  105.8537   34.2740 H         1 <0>         0.3300 
     40 H22        52.4310   99.6190   28.9033 H         1 <0>         0.3000 
@<TRIPOS>BOND
     1    1   13 1    
     2    1   19 1    
     3    1   20 1    
     4    1   21 1    
     5    2    4 ar   
     6    2   10 ar   
     7    2   22 1    
     8    3    5 ar   
     9    3   10 ar   
    10    3   23 1    
    11    4   16 ar   
    12    4   24 1    
    13    5   16 ar   
    14    5   25 1    
    15    6    8 1    
    16    6   11 1    
    17    6   26 1    
    18    6   27 1    
    19    7    9 1    
    20    7   11 1    
    21    7   28 1    
    22    7   29 1    
    23    8   12 1    
    24    8   30 1    
    25    8   31 1    
    26    9   12 1    
    27    9   32 1    
    28    9   33 1    
    29   10   17 1    
    30   11   13 1    
    31   11   34 1    
    32   12   14 1    
    33   12   35 1    
    34   13   15 1    
    35   13   36 1    
    36   14   17 am   BACKBONE|DICT|INTERRES
    37   14   18 2    
    38   15   37 1    
    39   15   38 1    
    40   15   39 1    
    41   17   40 1    
@<TRIPOS>SUBSTRUCTURE
     1 <0>         1 GROUP             0       ****    0 ROOT    
@<TRIPOS>MOLECULE
rock1-ligand
40   41    1
SMALL
USER_CHARGES


@<TRIPOS>ATOM
      1 C1         53.9059  104.1830   34.1789 C.3       1 <0>        -0.1800 
      2 C2         50.4926  100.4241   26.1424 C.ar      1 <0>        -0.4470 
      3 C3         50.9186   98.3865   27.3810 C.ar      1 <0>        -0.4470 
      4 C4         50.1173   99.6161   25.0550 C.ar      1 <0>         0.4730 
      5 C5         50.5186   97.6724   26.2370 C.ar      1 <0>         0.4730 
      6 C6         53.3523  103.8647   31.1206 C.3       1 <0>        -0.1200 
      7 C7         52.7993  101.7542   32.3811 C.3       1 <0>        -0.1200 
      8 C8         52.7314  103.2860   29.8406 C.3       1 <0>        -0.1200 
      9 C9         52.1699  101.1551   31.1155 C.3       1 <0>        -0.1200 
     10 C10        50.8926   99.7938   27.3420 C.ar      1 <0>         0.3770 
     11 C11        53.9280  102.7443   32.0141 C.3       1 <0>        -0.0600 
     12 C12        51.6304  102.2619   30.1787 C.3       1 <0>        -0.0600 
     13 C13        54.7173  103.2791   33.2335 C.3       1 <0>         0.2500 
     14 C14        50.9735  101.7350   28.8953 C.2       1 <0>         0.5000 
     15 N1         55.3186  102.1622   33.9865 N.4       1 <0>        -0.3000 
     16 N2         50.1184   98.2664   25.0948 N.ar      1 <0>        -0.6780 
     17 N3         51.3195  100.4988   28.4927 N.am      1 <0>        -0.3850 
     18 O1         50.1540  102.4496   28.3196 O.2       1 <0>        -0.5000 
     19 H1         53.5490  105.0770   33.6643 H         1 <0>         0.0600 
     20 H2         54.5161  104.5268   35.0151 H         1 <0>         0.0600 
     21 H3         53.0380  103.6685   34.5938 H         1 <0>         0.0600 
     22 H4         50.4763  101.4991   26.0384 H         1 <0>         0.1550 
     23 H5         51.2318   97.8553   28.2681 H         1 <0>         0.1550 
     24 H6         49.8064  100.0720   24.1279 H         1 <0>         0.0120 
     25 H7         50.5168   96.5919   26.2385 H         1 <0>         0.0120 
     26 H8         52.5926  104.4259   31.6639 H         1 <0>         0.0600 
     27 H9         54.1187  104.5869   30.8494 H         1 <0>         0.0600 
     28 H10        53.1768  100.9375   32.9960 H         1 <0>         0.0600 
     29 H11        52.0284  102.2550   32.9681 H         1 <0>         0.0600 
     30 H12        52.3269  104.0940   29.2291 H         1 <0>         0.0600 
     31 H13        53.5122  102.8133   29.2421 H         1 <0>         0.0600 
     32 H14        52.9285  100.5563   30.6065 H         1 <0>         0.0600 
     33 H15        51.3673  100.4700   31.3968 H         1 <0>         0.0600 
     34 H16        54.6502  102.1975   31.4046 H         1 <0>         0.0600 
     35 H17        50.8433  102.7883   30.7218 H         1 <0>         0.0600 
     36 H18        55.5531  103.8656   32.8485 H         1 <0>         0.0600 
     37 H19        54.5974  101.5999   34.4127 H         1 <0>         0.3300 
     38 H20        55.8513  101.5837   33.3507 H         1 <0>         0.3300 
     39 H21        55.9419  102.5105   34.7005 H         1 <0>         0.3300 
     40 H22        51.9247   99.9873   29.1172 H         1 <0>         0.3000 
@<TRIPOS>BOND
     1    1   13 1    
     2    1   19 1    
     3    1   20 1    
     4    1   21 1    
     5    2    4 ar   
     6    2   10 ar   
     7    2   22 1    
     8    3    5 ar   
     9    3   10 ar   
    10    3   23 1    
    11    4   16 ar   
    12    4   24 1    
    13    5   16 ar   
    14    5   25 1    
    15    6    8 1    
    16    6   11 1    
    17    6   26 1    
    18    6   27 1    
    19    7    9 1    
    20    7   11 1    
    21    7   28 1    
    22    7   29 1    
    23    8   12 1    
    24    8   30 1    
    25    8   31 1    
    26    9   12 1    
    27    9   32 1    
    28    9   33 1    
    29   10   17 1    
    30   11   13 1    
    31   11   34 1    
    32   12   14 1    
    33   12   35 1    
    34   13   15 1    
    35   13   36 1    
    36   14   17 am   BACKBONE|DICT|INTERRES
    37   14   18 2    
    38   15   37 1    
    39   15   38 1    
    40   15   39 1    
    41   17   40 1    
@<TRIPOS>SUBSTRUCTURE
     1 <0>         1 GROUP             0       ****    0 ROOT    
@<TRIPOS>MOLECULE
rock1-ligand
40   41    1
SMALL
USER_CHARGES


@<TRIPOS>ATOM
      1 C1         55.4067  103.3793   34.3855 C.3       1 <0>        -0.1800 
      2 C2         51.3184   98.8390   27.6226 C.ar      1 <0>        -0.4470 
      3 C3         50.4168  100.7662   26.4680 C.ar      1 <0>        -0.4470 
      4 C4         50.7898   98.0415   26.5881 C.ar      1 <0>         0.4730 
      5 C5         49.9366   99.8810   25.4812 C.ar      1 <0>         0.4730 
      6 C6         54.1206  103.4008   31.3714 C.3       1 <0>        -0.1200 
      7 C7         51.9590  103.7007   32.6437 C.3       1 <0>        -0.1200 
      8 C8         53.4145  102.5182   30.3318 C.3       1 <0>        -0.1200 
      9 C9         51.2498  102.7952   31.6280 C.3       1 <0>        -0.1200 
     10 C10        51.1264  100.2326   27.5654 C.ar      1 <0>         0.3770 
     11 C11        53.4428  103.3177   32.7596 C.3       1 <0>        -0.0600 
     12 C12        51.9163  102.8760   30.2390 C.3       1 <0>        -0.0600 
     13 C13        54.1638  104.1143   33.8722 C.3       1 <0>         0.2500 
     14 C14        51.1108  102.0739   29.2075 C.2       1 <0>         0.5000 
     15 N1         54.5174  105.4770   33.4372 N.4       1 <0>        -0.3000 
     16 N2         50.1186   98.5438   25.5310 N.ar      1 <0>        -0.6780 
     17 N3         51.7059  101.0495   28.5694 N.am      1 <0>        -0.3850 
     18 O1         49.9360  102.3875   29.0365 O.2       1 <0>        -0.5000 
     19 H1         55.1455  102.4048   34.8010 H         1 <0>         0.0600 
     20 H2         55.9138  103.9375   35.1713 H         1 <0>         0.0600 
     21 H3         56.1180  103.2095   33.5803 H         1 <0>         0.0600 
     22 H4         51.8612   98.3821   28.4373 H         1 <0>         0.1550 
     23 H5         50.2450  101.8280   26.3730 H         1 <0>         0.1550 
     24 H6         50.9148   96.9701   26.6064 H         1 <0>         0.0120 
     25 H7         49.3849  100.2563   24.6338 H         1 <0>         0.0120 
     26 H8         54.1202  104.4292   31.0069 H         1 <0>         0.0600 
     27 H9         55.1664  103.0994   31.4378 H         1 <0>         0.0600 
     28 H10        51.4673  103.6076   33.6131 H         1 <0>         0.0600 
     29 H11        51.8664  104.7456   32.3447 H         1 <0>         0.0600 
     30 H12        53.8984  102.6644   29.3652 H         1 <0>         0.0600 
     31 H13        53.5469  101.4695   30.6021 H         1 <0>         0.0600 
     32 H14        51.2757  101.7644   31.9845 H         1 <0>         0.0600 
     33 H15        50.1956  103.0646   31.5710 H         1 <0>         0.0600 
     34 H16        53.4602  102.2695   33.0648 H         1 <0>         0.0600 
     35 H17        51.8539  103.9090   29.9002 H         1 <0>         0.0600 
     36 H18        53.4850  104.2210   34.7194 H         1 <0>         0.0600 
     37 H19        55.1788  105.4408   32.6651 H         1 <0>         0.3300 
     38 H20        53.7004  106.0000   33.1079 H         1 <0>         0.3300 
     39 H21        54.9212  105.9995   34.1963 H         1 <0>         0.3300 
     40 H22        52.6258  100.7836   28.8887 H         1 <0>         0.3000 
@<TRIPOS>BOND
     1    1   13 1    
     2    1   19 1    
     3    1   20 1    
     4    1   21 1    
     5    2    4 ar   
     6    2   10 ar   
     7    2   22 1    
     8    3    5 ar   
     9    3   10 ar   
    10    3   23 1    
    11    4   16 ar   
    12    4   24 1    
    13    5   16 ar   
    14    5   25 1    
    15    6    8 1    
    16    6   11 1    
    17    6   26 1    
    18    6   27 1    
    19    7    9 1    
    20    7   11 1    
    21    7   28 1    
    22    7   29 1    
    23    8   12 1    
    24    8   30 1    
    25    8   31 1    
    26    9   12 1    
    27    9   32 1    
    28    9   33 1    
    29   10   17 1    
    30   11   13 1    
    31   11   34 1    
    32   12   14 1    
    33   12   35 1    
    34   13   15 1    
    35   13   36 1    
    36   14   17 am   BACKBONE|DICT|INTERRES
    37   14   18 2    
    38   15   37 1    
    39   15   38 1    
    40   15   39 1    
    41   17   40 1    
@<TRIPOS>SUBSTRUCTURE
     1 <0>         1 GROUP             0       ****    0 ROOT    
