@<TRIPOS>MOLECULE
rxra-ligand
55   54    1
SMALL
USER_CHARGES


@<TRIPOS>ATOM
      1 C1         60.7130   46.5325   34.1705 C.3       1 <0>        -0.1800 
      2 C2         61.8184   46.8849   35.1743 C.3       1 <0>        -0.1200 
      3 C3         56.7185   44.6297   29.7331 C.3       1 <0>        -0.1200 
      4 C4         55.6190   45.5160   29.1307 C.3       1 <0>        -0.2200 
      5 C5         65.3803   47.0788   33.4338 C.3       1 <0>        -0.1200 
      6 C6         59.2798   46.2355   29.0370 C.3       1 <0>        -0.1200 
      7 C7         64.4930   44.3956   32.0984 C.3       1 <0>        -0.1200 
      8 C8         61.1805   47.4053   26.9216 C.3       1 <0>        -0.1200 
      9 C9         64.5051   46.1743   28.5948 C.3       1 <0>        -0.1200 
     10 C10        63.1796   46.4975   34.6370 C.2       1 <0>        -0.1150 
     11 C11        57.6112   45.3248   30.7386 C.2       1 <0>        -0.1150 
     12 C12        64.0445   47.3765   34.1023 C.2       1 <0>        -0.1150 
     13 C13        58.7403   45.9894   30.4350 C.2       1 <0>        -0.1150 
     14 C14        65.9765   45.7063   33.7023 C.2       1 <0>        -0.1150 
     15 C15        59.4512   47.7135   28.7514 C.2       1 <0>        -0.1150 
     16 C16        65.6239   44.5596   33.0924 C.2       1 <0>        -0.1150 
     17 C17        60.2975   48.2203   27.8390 C.2       1 <0>        -0.1150 
     18 C18        64.8607   44.7700   30.6795 C.2       1 <0>        -0.1150 
     19 C19        62.5741   47.3549   27.4945 C.2       1 <0>        -0.1150 
     20 C20        64.2788   45.7961   30.0381 C.2       1 <0>        -0.1150 
     21 C21        63.1579   46.2249   27.9193 C.2       1 <0>        -0.1150 
     22 C22        54.3812   45.6954   30.0145 C.2       1 <0>         0.7000 
     23 O1         54.1185   44.8698   30.9187 O.co2     1 <0>        -0.8000 
     24 O2         53.6402   46.6581   29.7196 O.co2     1 <0>        -0.8000 
     25 H1         59.7374   46.8668   34.5198 H         1 <0>         0.0600 
     26 H2         60.8945   47.0078   33.2056 H         1 <0>         0.0600 
     27 H3         60.6532   45.4576   34.0027 H         1 <0>         0.0600 
     28 H4         61.6456   46.3723   36.1196 H         1 <0>         0.0600 
     29 H5         61.7956   47.9553   35.3831 H         1 <0>         0.0600 
     30 H6         56.2966   43.7497   30.2090 H         1 <0>         0.0600 
     31 H7         57.3364   44.2565   28.9228 H         1 <0>         0.0600 
     32 H8         55.2956   45.0656   28.1932 H         1 <0>         0.0600 
     33 H9         56.0256   46.4935   28.8692 H         1 <0>         0.0600 
     34 H10        66.1042   47.8399   33.7198 H         1 <0>         0.0600 
     35 H11        65.2446   47.1945   32.3596 H         1 <0>         0.0600 
     36 H12        60.2363   45.7218   28.9457 H         1 <0>         0.0600 
     37 H13        58.6183   45.8438   28.2677 H         1 <0>         0.0600 
     38 H14        63.6571   45.0172   32.4087 H         1 <0>         0.0600 
     39 H15        64.1391   43.3647   32.1219 H         1 <0>         0.0600 
     40 H16        60.7827   46.3972   26.8053 H         1 <0>         0.0600 
     41 H17        61.1864   47.8586   25.9351 H         1 <0>         0.0600 
     42 H18        65.1684   45.4579   28.1195 H         1 <0>         0.0600 
     43 H19        64.9728   47.1505   28.5196 H         1 <0>         0.0600 
     44 H20        63.4148   45.4451   34.6695 H         1 <0>         0.1150 
     45 H21        57.3023   45.2569   31.7720 H         1 <0>         0.1150 
     46 H22        63.7644   48.4199   34.0993 H         1 <0>         0.1150 
     47 H23        59.3285   46.3912   31.2442 H         1 <0>         0.1150 
     48 H24        66.7673   45.6782   34.4388 H         1 <0>         0.1150 
     49 H25        58.8340   48.3938   29.3187 H         1 <0>         0.1150 
     50 H26        66.1612   43.6552   33.3286 H         1 <0>         0.1150 
     51 H27        60.3671   49.2906   27.7194 H         1 <0>         0.1150 
     52 H28        65.5981   44.1593   30.1791 H         1 <0>         0.1150 
     53 H29        63.0923   48.2990   27.5842 H         1 <0>         0.1150 
     54 H30        63.5623   46.4091   30.5677 H         1 <0>         0.1150 
     55 H31        62.6392   45.2821   27.8193 H         1 <0>         0.1150 
@<TRIPOS>BOND
     1    1    2 1    
     2    1   25 1    
     3    1   26 1    
     4    1   27 1    
     5    2   10 1    
     6    2   28 1    
     7    2   29 1    
     8    3    4 1    
     9    3   11 1    
    10    3   30 1    
    11    3   31 1    
    12    4   22 1    
    13    4   32 1    
    14    4   33 1    
    15    5   12 1    
    16    5   14 1    
    17    5   34 1    
    18    5   35 1    
    19    6   13 1    
    20    6   15 1    
    21    6   36 1    
    22    6   37 1    
    23    7   16 1    
    24    7   18 1    
    25    7   38 1    
    26    7   39 1    
    27    8   17 1    
    28    8   19 1    
    29    8   40 1    
    30    8   41 1    
    31    9   20 1    
    32    9   21 1    
    33    9   42 1    
    34    9   43 1    
    35   10   12 2    
    36   10   44 1    
    37   11   13 2    
    38   11   45 1    
    39   12   46 1    
    40   13   47 1    
    41   14   16 2    
    42   14   48 1    
    43   15   17 2    
    44   15   49 1    
    45   16   50 1    
    46   17   51 1    
    47   18   20 2    
    48   18   52 1    
    49   19   21 2    
    50   19   53 1    
    51   20   54 1    
    52   21   55 1    
    53   22   23 1    
    54   22   24 2    
@<TRIPOS>SUBSTRUCTURE
     1 <0>         1 GROUP             0       ****    0 ROOT    
@<TRIPOS>MOLECULE
rxra-ligand
55   54    1
SMALL
USER_CHARGES


@<TRIPOS>ATOM
      1 C1         61.9452   47.3162   35.7155 C.3       1 <0>        -0.1800 
      2 C2         63.4194   47.6666   35.9529 C.3       1 <0>        -0.1200 
      3 C3         56.7621   44.6246   29.7127 C.3       1 <0>        -0.1200 
      4 C4         55.6515   45.4885   29.0927 C.3       1 <0>        -0.2200 
      5 C5         66.1013   46.7836   33.1751 C.3       1 <0>        -0.1200 
      6 C6         59.3157   46.2489   29.0283 C.3       1 <0>        -0.1200 
      7 C7         64.5055   44.2521   32.2343 C.3       1 <0>        -0.1200 
      8 C8         61.2542   47.3922   26.9433 C.3       1 <0>        -0.1200 
      9 C9         64.4815   46.0825   28.7427 C.3       1 <0>        -0.1200 
     10 C10        64.3513   46.8838   35.0553 C.2       1 <0>        -0.1150 
     11 C11        57.6332   45.3400   30.7210 C.2       1 <0>        -0.1150 
     12 C12        65.1233   47.4586   34.1193 C.2       1 <0>        -0.1150 
     13 C13        58.7603   46.0118   30.4220 C.2       1 <0>        -0.1150 
     14 C14        66.4131   45.3422   33.5367 C.2       1 <0>        -0.1150 
     15 C15        59.5055   47.7252   28.7466 C.2       1 <0>        -0.1150 
     16 C16        65.7403   44.2587   33.1120 C.2       1 <0>        -0.1150 
     17 C17        60.3664   48.2214   27.8417 C.2       1 <0>        -0.1150 
     18 C18        64.8011   44.6213   30.7947 C.2       1 <0>        -0.1150 
     19 C19        62.6228   47.3006   27.5677 C.2       1 <0>        -0.1150 
     20 C20        64.2516   45.6828   30.1827 C.2       1 <0>        -0.1150 
     21 C21        63.1497   46.1615   28.0397 C.2       1 <0>        -0.1150 
     22 C22        54.4363   45.6957   29.9996 C.2       1 <0>         0.7000 
     23 O1         54.2029   44.8797   30.9183 O.co2     1 <0>        -0.8000 
     24 O2         53.6865   46.6583   29.7197 O.co2     1 <0>        -0.8000 
     25 H1         61.2998   47.8565   36.4115 H         1 <0>         0.0600 
     26 H2         61.6380   47.5805   34.7034 H         1 <0>         0.0600 
     27 H3         61.7631   46.2487   35.8461 H         1 <0>         0.0600 
     28 H4         63.7045   47.4569   36.9813 H         1 <0>         0.0600 
     29 H5         63.5699   48.7374   35.8066 H         1 <0>         0.0600 
     30 H6         56.3560   43.7333   30.1835 H         1 <0>         0.0600 
     31 H7         57.4020   44.2551   28.9198 H         1 <0>         0.0600 
     32 H8         55.3039   45.0002   28.1833 H         1 <0>         0.0600 
     33 H9         56.0493   46.4564   28.7872 H         1 <0>         0.0600 
     34 H10        67.0365   47.3448   33.1750 H         1 <0>         0.0600 
     35 H11        65.7069   46.8567   32.1645 H         1 <0>         0.0600 
     36 H12        60.2675   45.7252   28.9453 H         1 <0>         0.0600 
     37 H13        58.6560   45.8593   28.2534 H         1 <0>         0.0600 
     38 H14        63.7678   44.9369   32.6551 H         1 <0>         0.0600 
     39 H15        64.0724   43.2531   32.2595 H         1 <0>         0.0600 
     40 H16        60.8319   46.3956   26.8031 H         1 <0>         0.0600 
     41 H17        61.3146   47.8582   25.9653 H         1 <0>         0.0600 
     42 H18        65.1500   45.3932   28.2349 H         1 <0>         0.0600 
     43 H19        64.9498   47.0581   28.7049 H         1 <0>         0.0600 
     44 H20        64.3733   45.8137   35.2057 H         1 <0>         0.1150 
     45 H21        57.3124   45.2797   31.7506 H         1 <0>         0.1150 
     46 H22        65.0489   48.5245   34.0060 H         1 <0>         0.1150 
     47 H23        59.3368   46.4273   31.2332 H         1 <0>         0.1150 
     48 H24        67.2577   45.2020   34.1979 H         1 <0>         0.1150 
     49 H25        58.8926   48.4111   29.3127 H         1 <0>         0.1150 
     50 H26        66.0865   43.2839   33.4233 H         1 <0>         0.1150 
     51 H27        60.4493   49.2907   27.7196 H         1 <0>         0.1150 
     52 H28        65.4808   43.9788   30.2548 H         1 <0>         0.1150 
     53 H29        63.1745   48.2264   27.6518 H         1 <0>         0.1150 
     54 H30        63.5819   46.3210   30.7408 H         1 <0>         0.1150 
     55 H31        62.6008   45.2357   27.9487 H         1 <0>         0.1150 
@<TRIPOS>BOND
     1    1    2 1    
     2    1   25 1    
     3    1   26 1    
     4    1   27 1    
     5    2   10 1    
     6    2   28 1    
     7    2   29 1    
     8    3    4 1    
     9    3   11 1    
    10    3   30 1    
    11    3   31 1    
    12    4   22 1    
    13    4   32 1    
    14    4   33 1    
    15    5   12 1    
    16    5   14 1    
    17    5   34 1    
    18    5   35 1    
    19    6   13 1    
    20    6   15 1    
    21    6   36 1    
    22    6   37 1    
    23    7   16 1    
    24    7   18 1    
    25    7   38 1    
    26    7   39 1    
    27    8   17 1    
    28    8   19 1    
    29    8   40 1    
    30    8   41 1    
    31    9   20 1    
    32    9   21 1    
    33    9   42 1    
    34    9   43 1    
    35   10   12 2    
    36   10   44 1    
    37   11   13 2    
    38   11   45 1    
    39   12   46 1    
    40   13   47 1    
    41   14   16 2    
    42   14   48 1    
    43   15   17 2    
    44   15   49 1    
    45   16   50 1    
    46   17   51 1    
    47   18   20 2    
    48   18   52 1    
    49   19   21 2    
    50   19   53 1    
    51   20   54 1    
    52   21   55 1    
    53   22   23 1    
    54   22   24 2    
@<TRIPOS>SUBSTRUCTURE
     1 <0>         1 GROUP             0       ****    0 ROOT    
@<TRIPOS>MOLECULE
rxra-ligand
55   54    1
SMALL
USER_CHARGES


@<TRIPOS>ATOM
      1 C1         62.0697   47.5212   35.1034 C.3       1 <0>        -0.1800 
      2 C2         63.0839   48.1926   34.1727 C.3       1 <0>        -0.1200 
      3 C3         56.8372   44.6813   29.7125 C.3       1 <0>        -0.1200 
      4 C4         55.7165   45.5530   29.1089 C.3       1 <0>        -0.2200 
      5 C5         66.3334   46.3307   32.9025 C.3       1 <0>        -0.1200 
      6 C6         59.6901   45.9087   29.3230 C.3       1 <0>        -0.1200 
      7 C7         64.3693   43.9733   33.9011 C.3       1 <0>        -0.1200 
      8 C8         62.3098   46.1697   27.6838 C.3       1 <0>        -0.1200 
      9 C9         64.4225   43.7850   29.9847 C.3       1 <0>        -0.1200 
     10 C10        64.3947   47.4403   34.1214 C.2       1 <0>        -0.1150 
     11 C11        57.6643   45.3672   30.7855 C.2       1 <0>        -0.1150 
     12 C12        65.0094   47.0590   32.9879 C.2       1 <0>        -0.1150 
     13 C13        58.9076   45.8622   30.6261 C.2       1 <0>        -0.1150 
     14 C14        66.5444   45.3749   34.0528 C.2       1 <0>        -0.1150 
     15 C15        60.4926   47.1849   29.1508 C.2       1 <0>        -0.1150 
     16 C16        65.7074   44.4068   34.4661 C.2       1 <0>        -0.1150 
     17 C17        61.6376   47.2914   28.4525 C.2       1 <0>        -0.1150 
     18 C18        64.5047   43.4630   32.4872 C.2       1 <0>        -0.1150 
     19 C19        63.4105   45.5624   28.5211 C.2       1 <0>        -0.1150 
     20 C20        64.1827   44.1937   31.4131 C.2       1 <0>        -0.1150 
     21 C21        63.3312   44.3591   29.1125 C.2       1 <0>        -0.1150 
     22 C22        54.4825   45.7176   30.0037 C.2       1 <0>         0.7000 
     23 O1         53.7044   46.6577   29.7196 O.co2     1 <0>        -0.8000 
     24 O2         54.2685   44.8919   30.9193 O.co2     1 <0>        -0.8000 
     25 H1         61.1405   48.0889   35.1421 H         1 <0>         0.0600 
     26 H2         61.8285   46.5131   34.7629 H         1 <0>         0.0600 
     27 H3         62.4573   47.4520   36.1195 H         1 <0>         0.0600 
     28 H4         63.3038   49.2014   34.5208 H         1 <0>         0.0600 
     29 H5         62.6661   48.2825   33.1689 H         1 <0>         0.0600 
     30 H6         56.4268   43.7718   30.1442 H         1 <0>         0.0600 
     31 H7         57.4938   44.3350   28.9200 H         1 <0>         0.0600 
     32 H8         55.3741   45.0971   28.1806 H         1 <0>         0.0600 
     33 H9         56.1086   46.5359   28.8441 H         1 <0>         0.0600 
     34 H10        67.1292   47.0746   32.9197 H         1 <0>         0.0600 
     35 H11        66.4144   45.7914   31.9587 H         1 <0>         0.0600 
     36 H12        60.3681   45.0582   29.3211 H         1 <0>         0.0600 
     37 H13        59.0212   45.8438   28.4653 H         1 <0>         0.0600 
     38 H14        63.6472   44.7870   33.9661 H         1 <0>         0.0600 
     39 H15        64.0003   43.1608   34.5219 H         1 <0>         0.0600 
     40 H16        61.5830   45.4095   27.4015 H         1 <0>         0.0600 
     41 H17        62.7314   46.5598   26.7575 H         1 <0>         0.0600 
     42 H18        64.4952   42.7031   29.8644 H         1 <0>         0.0600 
     43 H19        65.3843   44.2223   29.7192 H         1 <0>         0.0600 
     44 H20        64.8460   47.2182   35.0761 H         1 <0>         0.1150 
     45 H21        57.1982   45.4363   31.7576 H         1 <0>         0.1150 
     46 H22        64.5527   47.2993   32.0398 H         1 <0>         0.1150 
     47 H23        59.4128   46.2601   31.4933 H         1 <0>         0.1150 
     48 H24        67.4719   45.5078   34.5915 H         1 <0>         0.1150 
     49 H25        60.1045   48.0726   29.6199 H         1 <0>         0.1150 
     50 H26        66.0137   43.8582   35.3196 H         1 <0>         0.1150 
     51 H27        62.1368   48.2492   28.4202 H         1 <0>         0.1150 
     52 H28        64.9046   42.4679   32.3652 H         1 <0>         0.1150 
     53 H29        64.2993   46.1628   28.6533 H         1 <0>         0.1150 
     54 H30        63.7578   45.1763   31.5532 H         1 <0>         0.1150 
     55 H31        62.4419   43.7578   28.9979 H         1 <0>         0.1150 
@<TRIPOS>BOND
     1    1    2 1    
     2    1   25 1    
     3    1   26 1    
     4    1   27 1    
     5    2   10 1    
     6    2   28 1    
     7    2   29 1    
     8    3    4 1    
     9    3   11 1    
    10    3   30 1    
    11    3   31 1    
    12    4   22 1    
    13    4   32 1    
    14    4   33 1    
    15    5   12 1    
    16    5   14 1    
    17    5   34 1    
    18    5   35 1    
    19    6   13 1    
    20    6   15 1    
    21    6   36 1    
    22    6   37 1    
    23    7   16 1    
    24    7   18 1    
    25    7   38 1    
    26    7   39 1    
    27    8   17 1    
    28    8   19 1    
    29    8   40 1    
    30    8   41 1    
    31    9   20 1    
    32    9   21 1    
    33    9   42 1    
    34    9   43 1    
    35   10   12 2    
    36   10   44 1    
    37   11   13 2    
    38   11   45 1    
    39   12   46 1    
    40   13   47 1    
    41   14   16 2    
    42   14   48 1    
    43   15   17 2    
    44   15   49 1    
    45   16   50 1    
    46   17   51 1    
    47   18   20 2    
    48   18   52 1    
    49   19   21 2    
    50   19   53 1    
    51   20   54 1    
    52   21   55 1    
    53   22   23 1    
    54   22   24 2    
@<TRIPOS>SUBSTRUCTURE
     1 <0>         1 GROUP             0       ****    0 ROOT    
@<TRIPOS>MOLECULE
rxra-ligand
55   54    1
SMALL
USER_CHARGES


@<TRIPOS>ATOM
      1 C1         62.0654   47.4890   35.5513 C.3       1 <0>        -0.1800 
      2 C2         63.5203   47.8735   35.8453 C.3       1 <0>        -0.1200 
      3 C3         56.7525   44.5986   29.7154 C.3       1 <0>        -0.1200 
      4 C4         55.6506   45.4681   29.0915 C.3       1 <0>        -0.2200 
      5 C5         66.2697   46.3898   33.3930 C.3       1 <0>        -0.1200 
      6 C6         59.4987   45.9856   29.2441 C.3       1 <0>        -0.1200 
      7 C7         64.3826   43.8715   33.4160 C.3       1 <0>        -0.1200 
      8 C8         61.8756   46.7210   27.4310 C.3       1 <0>        -0.1200 
      9 C9         64.3544   44.5379   29.5609 C.3       1 <0>        -0.1200 
     10 C10        64.5022   46.9337   35.1789 C.2       1 <0>        -0.1150 
     11 C11        57.5765   45.2987   30.7767 C.2       1 <0>        -0.1150 
     12 C12        65.2618   47.2646   34.1199 C.2       1 <0>        -0.1150 
     13 C13        58.7772   45.8697   30.5754 C.2       1 <0>        -0.1150 
     14 C14        66.5524   45.0519   34.0560 C.2       1 <0>        -0.1150 
     15 C15        59.9406   47.4022   28.9222 C.2       1 <0>        -0.1150 
     16 C16        65.7559   43.9652   34.0452 C.2       1 <0>        -0.1150 
     17 C17        61.0053   47.7201   28.1651 C.2       1 <0>        -0.1150 
     18 C18        64.5042   43.7119   31.9229 C.2       1 <0>        -0.1150 
     19 C19        63.0567   46.2634   28.2551 C.2       1 <0>        -0.1150 
     20 C20        64.1685   44.6697   31.0474 C.2       1 <0>        -0.1150 
     21 C21        63.1541   45.0383   28.7959 C.2       1 <0>        -0.1150 
     22 C22        54.4372   45.6849   29.9986 C.2       1 <0>         0.7000 
     23 O1         53.7018   46.6581   29.7196 O.co2     1 <0>        -0.8000 
     24 O2         54.1949   44.8708   30.9173 O.co2     1 <0>        -0.8000 
     25 H1         61.3745   48.1400   36.0885 H         1 <0>         0.0600 
     26 H2         61.8465   47.5792   34.4870 H         1 <0>         0.0600 
     27 H3         61.8553   46.4607   35.8464 H         1 <0>         0.0600 
     28 H4         63.7087   47.8491   36.9182 H         1 <0>         0.0600 
     29 H5         63.7033   48.8976   35.5177 H         1 <0>         0.0600 
     30 H6         56.3375   43.6950   30.1545 H         1 <0>         0.0600 
     31 H7         57.4049   44.2514   28.9227 H         1 <0>         0.0600 
     32 H8         55.3037   44.9862   28.1778 H         1 <0>         0.0600 
     33 H9         56.0570   46.4354   28.7929 H         1 <0>         0.0600 
     34 H10        67.2099   46.9364   33.3187 H         1 <0>         0.0600 
     35 H11        65.9326   46.2368   32.3697 H         1 <0>         0.0600 
     36 H12        60.3646   45.3304   29.3086 H         1 <0>         0.0600 
     37 H13        58.8748   45.6646   28.4145 H         1 <0>         0.0600 
     38 H14        63.7982   44.7605   33.6487 H         1 <0>         0.0600 
     39 H15        63.8435   43.0192   33.8284 H         1 <0>         0.0600 
     40 H16        61.2792   45.8589   27.1288 H         1 <0>         0.0600 
     41 H17        62.2457   47.1850   26.5198 H         1 <0>         0.0600 
     42 H18        64.5047   43.4869   29.3194 H         1 <0>         0.0600 
     43 H19        65.2472   45.0943   29.2717 H         1 <0>         0.0600 
     44 H20        64.5637   45.9459   35.6107 H         1 <0>         0.1150 
     45 H21        57.1476   45.3158   31.7682 H         1 <0>         0.1150 
     46 H22        65.1630   48.2583   33.7199 H         1 <0>         0.1150 
     47 H23        59.2921   46.2802   31.4301 H         1 <0>         0.1150 
     48 H24        67.5024   44.9941   34.5666 H         1 <0>         0.1150 
     49 H25        59.3421   48.2057   29.3196 H         1 <0>         0.1150 
     50 H26        66.1037   43.0613   34.5193 H         1 <0>         0.1150 
     51 H27        61.2649   48.7606   28.0327 H         1 <0>         0.1150 
     52 H28        64.8977   42.7712   31.5681 H         1 <0>         0.1150 
     53 H29        63.8567   46.9769   28.3901 H         1 <0>         0.1150 
     54 H30        63.7717   45.6097   31.4027 H         1 <0>         0.1150 
     55 H31        62.3420   44.3351   28.6846 H         1 <0>         0.1150 
@<TRIPOS>BOND
     1    1    2 1    
     2    1   25 1    
     3    1   26 1    
     4    1   27 1    
     5    2   10 1    
     6    2   28 1    
     7    2   29 1    
     8    3    4 1    
     9    3   11 1    
    10    3   30 1    
    11    3   31 1    
    12    4   22 1    
    13    4   32 1    
    14    4   33 1    
    15    5   12 1    
    16    5   14 1    
    17    5   34 1    
    18    5   35 1    
    19    6   13 1    
    20    6   15 1    
    21    6   36 1    
    22    6   37 1    
    23    7   16 1    
    24    7   18 1    
    25    7   38 1    
    26    7   39 1    
    27    8   17 1    
    28    8   19 1    
    29    8   40 1    
    30    8   41 1    
    31    9   20 1    
    32    9   21 1    
    33    9   42 1    
    34    9   43 1    
    35   10   12 2    
    36   10   44 1    
    37   11   13 2    
    38   11   45 1    
    39   12   46 1    
    40   13   47 1    
    41   14   16 2    
    42   14   48 1    
    43   15   17 2    
    44   15   49 1    
    45   16   50 1    
    46   17   51 1    
    47   18   20 2    
    48   18   52 1    
    49   19   21 2    
    50   19   53 1    
    51   20   54 1    
    52   21   55 1    
    53   22   23 1    
    54   22   24 2    
@<TRIPOS>SUBSTRUCTURE
     1 <0>         1 GROUP             0       ****    0 ROOT    
@<TRIPOS>MOLECULE
rxra-ligand
55   54    1
SMALL
USER_CHARGES


@<TRIPOS>ATOM
      1 C1         61.7740   47.7796   35.0647 C.3       1 <0>        -0.1800 
      2 C2         63.2145   48.1188   35.4635 C.3       1 <0>        -0.1200 
      3 C3         56.6804   44.5082   29.7326 C.3       1 <0>        -0.1200 
      4 C4         55.5676   45.3417   29.0764 C.3       1 <0>        -0.2200 
      5 C5         66.2582   45.9170   34.1834 C.3       1 <0>        -0.1200 
      6 C6         59.1528   46.2247   29.0230 C.3       1 <0>        -0.1200 
      7 C7         63.7860   45.2879   32.4258 C.3       1 <0>        -0.1200 
      8 C8         61.0811   47.3097   26.9197 C.3       1 <0>        -0.1200 
      9 C9         64.0020   45.2584   28.5495 C.3       1 <0>        -0.1200 
     10 C10        64.1580   46.9633   35.2161 C.2       1 <0>        -0.1150 
     11 C11        57.5287   45.2640   30.7328 C.2       1 <0>        -0.1150 
     12 C12        65.3045   47.0584   34.5195 C.2       1 <0>        -0.1150 
     13 C13        58.6240   45.9781   30.4235 C.2       1 <0>        -0.1150 
     14 C14        65.5762   44.5671   34.0772 C.2       1 <0>        -0.1150 
     15 C15        59.3876   47.6981   28.7528 C.2       1 <0>        -0.1150 
     16 C16        64.5043   44.2929   33.3164 C.2       1 <0>        -0.1150 
     17 C17        60.2583   48.1702   27.8455 C.2       1 <0>        -0.1150 
     18 C18        63.8104   44.8173   31.0041 C.2       1 <0>        -0.1150 
     19 C19        62.3960   46.9325   27.5555 C.2       1 <0>        -0.1150 
     20 C20        63.9582   45.6689   29.9866 C.2       1 <0>        -0.1150 
     21 C21        62.7200   45.6706   27.8712 C.2       1 <0>        -0.1150 
     22 C22        54.3848   45.6446   29.9980 C.2       1 <0>         0.7000 
     23 O1         53.7044   46.6581   29.7196 O.co2     1 <0>        -0.8000 
     24 O2         54.1044   44.8467   30.9196 O.co2     1 <0>        -0.8000 
     25 H1         61.0972   48.5951   35.3196 H         1 <0>         0.0600 
     26 H2         61.6960   47.5977   33.9924 H         1 <0>         0.0600 
     27 H3         61.4196   46.8879   35.5834 H         1 <0>         0.0600 
     28 H4         63.2492   48.3581   36.5196 H         1 <0>         0.0600 
     29 H5         63.5561   49.0057   34.9279 H         1 <0>         0.0600 
     30 H6         56.2745   43.6311   30.2285 H         1 <0>         0.0600 
     31 H7         57.3325   44.1236   28.9543 H         1 <0>         0.0600 
     32 H8         55.1880   44.7915   28.2166 H         1 <0>         0.0600 
     33 H9         55.9737   46.2767   28.6886 H         1 <0>         0.0600 
     34 H10        67.0581   45.8581   34.9196 H         1 <0>         0.0600 
     35 H11        66.7341   46.1302   33.2257 H         1 <0>         0.0600 
     36 H12        60.0857   45.6740   28.9197 H         1 <0>         0.0600 
     37 H13        58.4680   45.8583   28.2606 H         1 <0>         0.0600 
     38 H14        64.2564   46.2663   32.4281 H         1 <0>         0.0600 
     39 H15        62.7686   45.4583   32.7676 H         1 <0>         0.0600 
     40 H16        60.5124   46.4185   26.6487 H         1 <0>         0.0600 
     41 H17        61.2621   47.8582   26.0000 H         1 <0>         0.0600 
     42 H18        64.1043   44.1738   28.5196 H         1 <0>         0.0600 
     43 H19        64.8736   45.7189   28.0851 H         1 <0>         0.0600 
     44 H20        63.8591   46.0118   35.6311 H         1 <0>         0.1150 
     45 H21        57.2182   45.1965   31.7652 H         1 <0>         0.1150 
     46 H22        65.5975   48.0216   34.1280 H         1 <0>         0.1150 
     47 H23        59.1902   46.4184   31.2282 H         1 <0>         0.1150 
     48 H24        66.0064   43.7743   34.6654 H         1 <0>         0.1150 
     49 H25        58.8007   48.4037   29.3196 H         1 <0>         0.1150 
     50 H26        64.1051   43.2885   33.3264 H         1 <0>         0.1150 
     51 H27        60.3885   49.2344   27.7196 H         1 <0>         0.1150 
     52 H28        63.7046   43.7576   30.8224 H         1 <0>         0.1150 
     53 H29        63.0836   47.7377   27.7690 H         1 <0>         0.1150 
     54 H30        64.0475   46.7221   30.1864 H         1 <0>         0.1150 
     55 H31        62.0249   44.8716   27.6580 H         1 <0>         0.1150 
@<TRIPOS>BOND
     1    1    2 1    
     2    1   25 1    
     3    1   26 1    
     4    1   27 1    
     5    2   10 1    
     6    2   28 1    
     7    2   29 1    
     8    3    4 1    
     9    3   11 1    
    10    3   30 1    
    11    3   31 1    
    12    4   22 1    
    13    4   32 1    
    14    4   33 1    
    15    5   12 1    
    16    5   14 1    
    17    5   34 1    
    18    5   35 1    
    19    6   13 1    
    20    6   15 1    
    21    6   36 1    
    22    6   37 1    
    23    7   16 1    
    24    7   18 1    
    25    7   38 1    
    26    7   39 1    
    27    8   17 1    
    28    8   19 1    
    29    8   40 1    
    30    8   41 1    
    31    9   20 1    
    32    9   21 1    
    33    9   42 1    
    34    9   43 1    
    35   10   12 2    
    36   10   44 1    
    37   11   13 2    
    38   11   45 1    
    39   12   46 1    
    40   13   47 1    
    41   14   16 2    
    42   14   48 1    
    43   15   17 2    
    44   15   49 1    
    45   16   50 1    
    46   17   51 1    
    47   18   20 2    
    48   18   52 1    
    49   19   21 2    
    50   19   53 1    
    51   20   54 1    
    52   21   55 1    
    53   22   23 1    
    54   22   24 2    
@<TRIPOS>SUBSTRUCTURE
     1 <0>         1 GROUP             0       ****    0 ROOT    
@<TRIPOS>MOLECULE
rxra-ligand
55   54    1
SMALL
USER_CHARGES


@<TRIPOS>ATOM
      1 C1         61.2240   48.0202   36.0514 C.3       1 <0>        -0.1800 
      2 C2         61.7242   46.7429   35.3735 C.3       1 <0>        -0.1200 
      3 C3         56.9272   44.7427   30.3432 C.3       1 <0>        -0.1200 
      4 C4         55.8898   45.8568   30.5274 C.3       1 <0>        -0.2200 
      5 C5         65.2476   47.2229   33.7041 C.3       1 <0>        -0.1200 
      6 C6         58.9095   46.4964   28.6844 C.3       1 <0>        -0.1200 
      7 C7         64.8579   44.5360   32.1628 C.3       1 <0>        -0.1200 
      8 C8         61.3381   47.4354   26.9170 C.3       1 <0>        -0.1200 
      9 C9         64.6312   46.1901   28.6143 C.3       1 <0>        -0.1200 
     10 C10        62.8385   47.0482   34.4025 C.2       1 <0>        -0.1150 
     11 C11        58.2968   45.2095   30.7957 C.2       1 <0>        -0.1150 
     12 C12        64.1416   46.9017   34.6832 C.2       1 <0>        -0.1150 
     13 C13        59.1567   45.9540   30.0791 C.2       1 <0>        -0.1150 
     14 C14        66.2548   46.0974   33.6102 C.2       1 <0>        -0.1150 
     15 C15        59.4237   47.9135   28.5364 C.2       1 <0>        -0.1150 
     16 C16        66.0896   44.9499   32.9331 C.2       1 <0>        -0.1150 
     17 C17        60.4547   48.3120   27.7679 C.2       1 <0>        -0.1150 
     18 C18        65.0618   44.8371   30.6981 C.2       1 <0>        -0.1150 
     19 C19        62.7187   47.3790   27.5091 C.2       1 <0>        -0.1150 
     20 C20        64.4590   45.8566   30.0724 C.2       1 <0>        -0.1150 
     21 C21        63.2759   46.2505   27.9668 C.2       1 <0>        -0.1150 
     22 C22        54.4625   45.4265   30.2334 C.2       1 <0>         0.7000 
     23 O1         53.7043   46.3155   29.7910 O.co2     1 <0>        -0.8000 
     24 O2         54.1062   44.2639   30.5196 O.co2     1 <0>        -0.8000 
     25 H1         60.5046   47.8102   36.8401 H         1 <0>         0.0600 
     26 H2         62.0451   48.5785   36.5031 H         1 <0>         0.0600 
     27 H3         60.7386   48.6614   35.3197 H         1 <0>         0.0600 
     28 H4         60.9087   46.2536   34.8383 H         1 <0>         0.0600 
     29 H5         62.0834   46.0264   36.1095 H         1 <0>         0.0600 
     30 H6         56.6628   43.8583   30.9196 H         1 <0>         0.0600 
     31 H7         56.9656   44.4291   29.2996 H         1 <0>         0.0600 
     32 H8         56.1195   46.6582   29.8351 H         1 <0>         0.0600 
     33 H9         55.9286   46.2569   31.5407 H         1 <0>         0.0600 
     34 H10        65.7465   48.1383   34.0184 H         1 <0>         0.0600 
     35 H11        64.8283   47.4182   32.7169 H         1 <0>         0.0600 
     36 H12        59.3884   45.8572   27.9636 H         1 <0>         0.0600 
     37 H13        57.8502   46.4710   28.4383 H         1 <0>         0.0600 
     38 H14        63.9762   45.0597   32.5318 H         1 <0>         0.0600 
     39 H15        64.6706   43.4713   32.3012 H         1 <0>         0.0600 
     40 H16        60.9532   46.4283   26.7947 H         1 <0>         0.0600 
     41 H17        61.3926   47.8592   25.9206 H         1 <0>         0.0600 
     42 H18        65.2644   45.4583   28.1197 H         1 <0>         0.0600 
     43 H19        65.1221   47.1514   28.5181 H         1 <0>         0.0600 
     44 H20        62.5404   47.4220   33.4339 H         1 <0>         0.1150 
     45 H21        58.5720   44.9097   31.7955 H         1 <0>         0.1150 
     46 H22        64.4474   46.5480   35.6582 H         1 <0>         0.1150 
     47 H23        60.1151   46.1986   30.5137 H         1 <0>         0.1150 
     48 H24        67.1921   46.2392   34.1224 H         1 <0>         0.1150 
     49 H25        58.8892   48.6588   29.1057 H         1 <0>         0.1150 
     50 H26        66.9068   44.2557   32.9203 H         1 <0>         0.1150 
     51 H27        60.7083   49.3605   27.7195 H         1 <0>         0.1150 
     52 H28        65.7359   44.1917   30.1551 H         1 <0>         0.1150 
     53 H29        63.2539   48.3148   27.5760 H         1 <0>         0.1150 
     54 H30        63.7950   46.5030   30.6287 H         1 <0>         0.1150 
     55 H31        62.7359   45.3160   27.9028 H         1 <0>         0.1150 
@<TRIPOS>BOND
     1    1    2 1    
     2    1   25 1    
     3    1   26 1    
     4    1   27 1    
     5    2   10 1    
     6    2   28 1    
     7    2   29 1    
     8    3    4 1    
     9    3   11 1    
    10    3   30 1    
    11    3   31 1    
    12    4   22 1    
    13    4   32 1    
    14    4   33 1    
    15    5   12 1    
    16    5   14 1    
    17    5   34 1    
    18    5   35 1    
    19    6   13 1    
    20    6   15 1    
    21    6   36 1    
    22    6   37 1    
    23    7   16 1    
    24    7   18 1    
    25    7   38 1    
    26    7   39 1    
    27    8   17 1    
    28    8   19 1    
    29    8   40 1    
    30    8   41 1    
    31    9   20 1    
    32    9   21 1    
    33    9   42 1    
    34    9   43 1    
    35   10   12 2    
    36   10   44 1    
    37   11   13 2    
    38   11   45 1    
    39   12   46 1    
    40   13   47 1    
    41   14   16 2    
    42   14   48 1    
    43   15   17 2    
    44   15   49 1    
    45   16   50 1    
    46   17   51 1    
    47   18   20 2    
    48   18   52 1    
    49   19   21 2    
    50   19   53 1    
    51   20   54 1    
    52   21   55 1    
    53   22   23 1    
    54   22   24 2    
@<TRIPOS>SUBSTRUCTURE
     1 <0>         1 GROUP             0       ****    0 ROOT    
