@<TRIPOS>MOLECULE
sahh-ligand
32   34    1
SMALL
USER_CHARGES


@<TRIPOS>ATOM
      1 C1         49.1067  -22.4682  102.4242 C.ar      1 <0>         0.2200 
      2 C2         46.6085  -19.5105  100.4388 C.ar      1 <0>         0.2000 
      3 C3         44.3427  -19.0200  102.3650 C.3       1 <0>        -0.1200 
      4 C4         42.7834  -18.8674  104.4180 C.3       1 <0>         0.1450 
      5 C5         48.1995  -20.8978  100.4469 C.ar      1 <0>         0.1500 
      6 C6         49.3011  -21.7537  100.2193 C.ar      1 <0>         0.4400 
      7 C7         47.6397  -20.9214  101.7541 C.ar      1 <0>         0.3800 
      8 C8         43.8385  -18.1635  103.5354 C.3       1 <0>        -0.0600 
      9 C9         45.7031  -19.6067  102.8059 C.3       1 <0>         0.0625 
     10 C10        46.3307  -18.5486  103.7241 C.3       1 <0>         0.2050 
     11 C11        45.1173  -17.8278  104.2998 C.2       1 <0>         0.4700 
     12 N1         49.9067  -21.8825   99.0302 N.pl3     1 <0>        -0.8100 
     13 N2         49.7445  -22.5003  101.2488 N.ar      1 <0>        -0.5300 
     14 N3         48.0673  -21.7073  102.7842 N.ar      1 <0>        -0.5500 
     15 N4         47.5068  -20.0133   99.6489 N.2       1 <0>        -0.4900 
     16 N5         46.5928  -20.0061  101.7208 N.pl3     1 <0>        -0.2725 
     17 O1         41.5965  -18.1002  104.4490 O.3       1 <0>        -0.6830 
     18 O2         47.1067  -19.1496  104.7406 O.3       1 <0>        -0.6830 
     19 O3         45.1596  -17.0482  105.2489 O.2       1 <0>        -0.4700 
     20 H1         49.5066  -23.1169  103.1905 H         1 <0>         0.2000 
     21 H2         45.9364  -18.7561  100.0711 H         1 <0>         0.2000 
     22 H3         43.6433  -19.8030  102.0716 H         1 <0>         0.0600 
     23 H4         44.4305  -18.3459  101.5169 H         1 <0>         0.0600 
     24 H5         43.1306  -18.9945  105.4447 H         1 <0>         0.0600 
     25 H6         42.5468  -19.8662  104.0489 H         1 <0>         0.0600 
     26 H7         43.4268  -17.2308  103.1477 H         1 <0>         0.0600 
     27 H8         45.4768  -20.5002  103.3835 H         1 <0>         0.0600 
     28 H9         46.9349  -17.8375  103.1583 H         1 <0>         0.0600 
     29 H10        49.6996  -21.2487   98.2710 H         1 <0>         0.3700 
     30 H11        50.6425  -22.5716   98.8789 H         1 <0>         0.3700 
     31 H12        41.2360  -18.0593  103.5744 H         1 <0>         0.4180 
     32 H13        47.7278  -18.5172  105.0991 H         1 <0>         0.4180 
@<TRIPOS>BOND
     1    1   13 ar   
     2    1   14 ar   
     3    1   20 1    
     4    2   15 ar   
     5    2   16 ar   
     6    2   21 1    
     7    3    8 1    
     8    3    9 1    
     9    3   22 1    
    10    3   23 1    
    11    4    8 1    
    12    4   17 1    
    13    4   24 1    
    14    4   25 1    
    15    5    6 ar   
    16    5    7 ar   
    17    5   15 ar   
    18    6   12 1    
    19    6   13 ar   
    20    7   14 ar   
    21    7   16 ar   
    22    8   11 1    
    23    8   26 1    
    24    9   10 1    
    25    9   16 1    
    26    9   27 1    
    27   10   11 1    
    28   10   18 1    
    29   10   28 1    
    30   11   19 2    
    31   12   29 1    
    32   12   30 1    
    33   17   31 1    
    34   18   32 1    
@<TRIPOS>SUBSTRUCTURE
     1 <0>         1 GROUP             0       ****    0 ROOT    
