@<TRIPOS>MOLECULE
src-ligand
53   56    1
SMALL
USER_CHARGES


@<TRIPOS>ATOM
      1 C1          4.9600   11.9289    5.5706 C.3       1 <0>        -0.1800 
      2 C2          5.1224   10.3202    3.5973 C.3       1 <0>        -0.1800 
      3 C3         -4.0779    0.8150    9.5695 C.ar      1 <0>        -0.1150 
      4 C4         -3.4847   -0.2831    8.9115 C.ar      1 <0>        -0.1150 
      5 C5         -3.4100    2.0560    9.6021 C.ar      1 <0>        -0.1150 
      6 C6          2.0425    7.1849    6.8506 C.ar      1 <0>        -0.1150 
      7 C7          3.2046    6.9467    8.9788 C.ar      1 <0>        -0.1150 
      8 C8          0.9508    6.4590    7.3628 C.ar      1 <0>        -0.1150 
      9 C9          2.1155    6.2145    9.4941 C.ar      1 <0>        -0.1150 
     10 C10        -1.5408    1.1082    8.3695 C.ar      1 <0>        -0.1150 
     11 C11         8.3931    7.7128    6.8390 C.ar      1 <0>         0.8060 
     12 C12         3.1852    7.4193    7.6472 C.ar      1 <0>         0.0000 
     13 C13         0.9971    5.9518    8.6770 C.ar      1 <0>         0.1066 
     14 C14        -2.2114   -0.1387    8.3175 C.ar      1 <0>         0.1500 
     15 C15        -2.1361    2.2222    9.0219 C.ar      1 <0>         0.1066 
     16 C16         5.7244    7.7064    7.1696 C.ar      1 <0>        -0.5166 
     17 C17         4.3467    8.1079    7.0743 C.ar      1 <0>         0.3149 
     18 C18         6.5262    6.6697    7.7091 C.ar      1 <0>         0.8027 
     19 C19         6.4289    8.6649    6.4026 C.ar      1 <0>         0.8031 
     20 C20         5.6229   10.6568    5.0116 C.3       1 <0>         0.0625 
     21 C21        -0.2737    3.8969    8.8705 C.2       1 <0>         0.7661 
     22 C22        -1.5766   -1.3259    7.6142 C.3       1 <0>         0.4500 
     23 N1          6.0253    5.5536    8.3695 N.pl3     1 <0>        -0.9200 
     24 N2          7.8645    6.7220    7.5594 N.ar      1 <0>        -0.8250 
     25 N3          7.7730    8.7014    6.1946 N.ar      1 <0>        -0.8768 
     26 N4          4.1962    9.1590    6.3019 N.2       1 <0>        -0.4195 
     27 N5         -0.0852    5.1905    9.1695 N.am      1 <0>        -0.4727 
     28 N6         -1.5237    3.5029    9.1694 N.am      1 <0>        -0.4727 
     29 N7          5.4514    9.5164    5.9048 N.pl3     1 <0>        -0.0294 
     30 O1          0.6034    3.1844    8.3825 O.2       1 <0>        -0.6163 
     31 F1         -0.2526   -1.1986    7.5696 F         1 <0>        -0.2000 
     32 F2         -1.8678   -2.4612    8.2522 F         1 <0>        -0.2000 
     33 F3         -2.0440   -1.4033    6.3696 F         1 <0>        -0.2000 
     34 H1          5.1757   12.7915    4.9394 H         1 <0>         0.0600 
     35 H2          3.8760   11.8261    5.6302 H         1 <0>         0.0600 
     36 H3          5.3277   12.1564    6.5708 H         1 <0>         0.0600 
     37 H4          5.3116   11.1435    2.9080 H         1 <0>         0.0600 
     38 H5          5.6265    9.4373    3.2023 H         1 <0>         0.0600 
     39 H6          4.0501   10.1214    3.5902 H         1 <0>         0.0600 
     40 H7         -5.0735    0.7310    9.9696 H         1 <0>         0.1150 
     41 H8         -4.0110   -1.2239    8.8532 H         1 <0>         0.1150 
     42 H9         -3.8954    2.8959   10.0562 H         1 <0>         0.1150 
     43 H10         2.0102    7.5396    5.8306 H         1 <0>         0.1150 
     44 H11         4.0636    7.1294    9.6085 H         1 <0>         0.1150 
     45 H12         0.0907    6.2683    6.7368 H         1 <0>         0.1150 
     46 H13         2.1526    5.8364   10.5059 H         1 <0>         0.1150 
     47 H14        -0.5567    1.1768    7.9414 H         1 <0>         0.1150 
     48 H15         9.4706    7.7083    6.7695 H         1 <0>         0.0181 
     49 H16         6.6935   10.8551    4.9435 H         1 <0>         0.0600 
     50 H17         5.0389    5.4404    8.5561 H         1 <0>         0.3600 
     51 H18         6.6477    4.8611    8.7682 H         1 <0>         0.3600 
     52 H19        -0.8606    5.6984    9.5913 H         1 <0>         0.2912 
     53 H20        -2.1130    4.2237    9.5699 H         1 <0>         0.2912 
@<TRIPOS>BOND
     1    1   20 1    
     2    1   34 1    
     3    1   35 1    
     4    1   36 1    
     5    2   20 1    
     6    2   37 1    
     7    2   38 1    
     8    2   39 1    
     9    3    4 ar   
    10    3    5 ar   
    11    3   40 1    
    12    4   14 ar   
    13    4   41 1    
    14    5   15 ar   
    15    5   42 1    
    16    6    8 ar   
    17    6   12 ar   
    18    6   43 1    
    19    7    9 ar   
    20    7   12 ar   
    21    7   44 1    
    22    8   13 ar   
    23    8   45 1    
    24    9   13 ar   
    25    9   46 1    
    26   10   14 ar   
    27   10   15 ar   
    28   10   47 1    
    29   11   24 ar   
    30   11   25 ar   
    31   11   48 1    
    32   12   17 1    
    33   13   27 1    
    34   14   22 1    
    35   15   28 1    
    36   16   17 ar   
    37   16   18 ar   
    38   16   19 ar   
    39   17   26 ar   
    40   18   23 1    
    41   18   24 ar   
    42   19   25 ar   
    43   19   29 ar   
    44   20   29 1    
    45   20   49 1    
    46   21   27 am   BACKBONE|DICT|INTERRES
    47   21   28 am   BACKBONE|DICT|INTERRES
    48   21   30 2    
    49   22   31 1    
    50   22   32 1    
    51   22   33 1    
    52   23   50 1    
    53   23   51 1    
    54   26   29 ar   
    55   27   52 1    
    56   28   53 1    
@<TRIPOS>SUBSTRUCTURE
     1 <0>         1 GROUP             0       ****    0 ROOT    
@<TRIPOS>MOLECULE
src-ligand
53   56    1
SMALL
USER_CHARGES


@<TRIPOS>ATOM
      1 C1          4.9618   11.9290    5.5695 C.3       1 <0>        -0.1800 
      2 C2          5.1283   10.3211    3.5959 C.3       1 <0>        -0.1800 
      3 C3         -4.0709    0.8256    9.5695 C.ar      1 <0>        -0.1150 
      4 C4         -3.4739   -0.2691    8.9098 C.ar      1 <0>        -0.1150 
      5 C5         -3.4051    2.0673    9.6035 C.ar      1 <0>        -0.1150 
      6 C6          2.0388    7.1986    6.8520 C.ar      1 <0>        -0.1150 
      7 C7          3.2060    6.9494    8.9768 C.ar      1 <0>        -0.1150 
      8 C8          0.9447    6.4778    7.3656 C.ar      1 <0>        -0.1150 
      9 C9          2.1147    6.2218    9.4932 C.ar      1 <0>        -0.1150 
     10 C10        -1.5334    1.1253    8.3695 C.ar      1 <0>        -0.1150 
     11 C11         8.3942    7.7116    6.8386 C.ar      1 <0>         0.8060 
     12 C12         3.1852    7.4239    7.6460 C.ar      1 <0>         0.0000 
     13 C13         0.9932    5.9669    8.6781 C.ar      1 <0>         0.1066 
     14 C14        -2.2001   -0.1226    8.3167 C.ar      1 <0>         0.1500 
     15 C15        -2.1320    2.2366    9.0226 C.ar      1 <0>         0.1066 
     16 C16         5.7255    7.7072    7.1695 C.ar      1 <0>        -0.5166 
     17 C17         4.3481    8.1079    7.0719 C.ar      1 <0>         0.3149 
     18 C18         6.5263    6.6703    7.7097 C.ar      1 <0>         0.8027 
     19 C19         6.4308    8.6649    6.4021 C.ar      1 <0>         0.8031 
     20 C20         5.6264   10.6575    5.0110 C.3       1 <0>         0.0625 
     21 C21        -0.2737    3.9120    8.8694 C.2       1 <0>         0.7661 
     22 C22        -1.5585   -1.3070    7.6143 C.3       1 <0>         0.4500 
     23 N1          6.0245    5.5542    8.3695 N.pl3     1 <0>        -0.9200 
     24 N2          7.8647    6.7215    7.5596 N.ar      1 <0>        -0.8250 
     25 N3          7.7750    8.7006    6.1943 N.ar      1 <0>        -0.8768 
     26 N4          4.1987    9.1593    6.2996 N.2       1 <0>        -0.4195 
     27 N5         -0.0879    5.2047    9.1695 N.am      1 <0>        -0.4727 
     28 N6         -1.5226    3.5174    9.1695 N.am      1 <0>        -0.4727 
     29 N7          5.4541    9.5168    5.9036 N.pl3     1 <0>        -0.0294 
     30 O1          0.6045    3.2019    8.3799 O.2       1 <0>        -0.6163 
     31 F1         -2.0252   -1.3891    6.3695 F         1 <0>        -0.2000 
     32 F2         -0.2349   -1.1716    7.5695 F         1 <0>        -0.2000 
     33 F3         -1.8422   -2.4429    8.2543 F         1 <0>        -0.2000 
     34 H1          5.1793   12.7923    4.9398 H         1 <0>         0.0600 
     35 H2          3.8776   11.8262    5.6259 H         1 <0>         0.0600 
     36 H3          5.3263   12.1551    6.5710 H         1 <0>         0.0600 
     37 H4          5.3188   11.1445    2.9069 H         1 <0>         0.0600 
     38 H5          5.6327    9.4381    3.2016 H         1 <0>         0.0600 
     39 H6          4.0560   10.1227    3.5869 H         1 <0>         0.0600 
     40 H7         -5.0671    0.7384    9.9695 H         1 <0>         0.1150 
     41 H8         -3.9977   -1.2113    8.8502 H         1 <0>         0.1150 
     42 H9         -3.8922    2.9048   10.0594 H         1 <0>         0.1150 
     43 H10         2.0056    7.5560    5.8329 H         1 <0>         0.1150 
     44 H11         4.0675    7.1267    9.6044 H         1 <0>         0.1150 
     45 H12         0.0819    6.2924    6.7416 H         1 <0>         0.1150 
     46 H13         2.1530    5.8404   10.5036 H         1 <0>         0.1150 
     47 H14        -0.5493    1.1962    7.9424 H         1 <0>         0.1150 
     48 H15         9.4717    7.7080    6.7695 H         1 <0>         0.0181 
     49 H16         6.6970   10.8564    4.9447 H         1 <0>         0.0600 
     50 H17         5.0380    5.4419    8.5560 H         1 <0>         0.3600 
     51 H18         6.6465    4.8617    8.7690 H         1 <0>         0.3600 
     52 H19        -0.8646    5.7079    9.5939 H         1 <0>         0.2912 
     53 H20        -2.1131    4.2374    9.5696 H         1 <0>         0.2912 
@<TRIPOS>BOND
     1    1   20 1    
     2    1   34 1    
     3    1   35 1    
     4    1   36 1    
     5    2   20 1    
     6    2   37 1    
     7    2   38 1    
     8    2   39 1    
     9    3    4 ar   
    10    3    5 ar   
    11    3   40 1    
    12    4   14 ar   
    13    4   41 1    
    14    5   15 ar   
    15    5   42 1    
    16    6    8 ar   
    17    6   12 ar   
    18    6   43 1    
    19    7    9 ar   
    20    7   12 ar   
    21    7   44 1    
    22    8   13 ar   
    23    8   45 1    
    24    9   13 ar   
    25    9   46 1    
    26   10   14 ar   
    27   10   15 ar   
    28   10   47 1    
    29   11   24 ar   
    30   11   25 ar   
    31   11   48 1    
    32   12   17 1    
    33   13   27 1    
    34   14   22 1    
    35   15   28 1    
    36   16   17 ar   
    37   16   18 ar   
    38   16   19 ar   
    39   17   26 ar   
    40   18   23 1    
    41   18   24 ar   
    42   19   25 ar   
    43   19   29 ar   
    44   20   29 1    
    45   20   49 1    
    46   21   27 am   BACKBONE|DICT|INTERRES
    47   21   28 am   BACKBONE|DICT|INTERRES
    48   21   30 2    
    49   22   31 1    
    50   22   32 1    
    51   22   33 1    
    52   23   50 1    
    53   23   51 1    
    54   26   29 ar   
    55   27   52 1    
    56   28   53 1    
@<TRIPOS>SUBSTRUCTURE
     1 <0>         1 GROUP             0       ****    0 ROOT    
@<TRIPOS>MOLECULE
src-ligand
53   56    1
SMALL
USER_CHARGES


@<TRIPOS>ATOM
      1 C1          4.8949   11.9532    5.5810 C.3       1 <0>        -0.1800 
      2 C2          4.9332   10.3545    3.5935 C.3       1 <0>        -0.1800 
      3 C3         -4.0899    0.8230    9.5695 C.ar      1 <0>        -0.1150 
      4 C4         -3.4938   -0.2747    8.9135 C.ar      1 <0>        -0.1150 
      5 C5         -3.4229    2.0640    9.6042 C.ar      1 <0>        -0.1150 
      6 C6          3.2351    6.8674    8.9553 C.ar      1 <0>        -0.1150 
      7 C7          2.0172    7.2172    6.8748 C.ar      1 <0>        -0.1150 
      8 C8          2.1477    6.1309    9.4690 C.ar      1 <0>        -0.1150 
      9 C9          0.9258    6.4936    7.3879 C.ar      1 <0>        -0.1150 
     10 C10        -1.5524    1.1167    8.3695 C.ar      1 <0>        -0.1150 
     11 C11         8.3871    7.8252    6.7696 C.ar      1 <0>         0.8060 
     12 C12         3.1861    7.3998    7.6473 C.ar      1 <0>         0.0000 
     13 C13         0.9985    5.9309    8.6768 C.ar      1 <0>         0.1066 
     14 C14        -2.2208   -0.1307    8.3184 C.ar      1 <0>         0.1500 
     15 C15        -2.1482    2.2274    9.0267 C.ar      1 <0>         0.1066 
     16 C16         5.7230    7.7326    7.1438 C.ar      1 <0>        -0.5166 
     17 C17         4.3339    8.1078    7.0689 C.ar      1 <0>         0.3149 
     18 C18         6.5666    6.7257    7.6759 C.ar      1 <0>         0.8027 
     19 C19         6.3891    8.7105    6.3622 C.ar      1 <0>         0.8031 
     20 C20         5.5152   10.6798    4.9790 C.3       1 <0>         0.0625 
     21 C21        -0.2699    3.8809    8.9271 C.2       1 <0>         0.7661 
     22 C22        -1.5841   -1.3167    7.6143 C.3       1 <0>         0.4500 
     23 N1          6.1210    5.6063    8.3695 N.pl3     1 <0>        -0.9200 
     24 N2          7.9006    6.8219    7.5022 N.ar      1 <0>        -0.8250 
     25 N3          7.7267    8.7894    6.1303 N.ar      1 <0>        -0.8768 
     26 N4          4.1489    9.1574    6.3012 N.2       1 <0>        -0.4195 
     27 N5         -0.0944    5.1865    9.1695 N.am      1 <0>        -0.4727 
     28 N6         -1.5374    3.5071    9.1696 N.am      1 <0>        -0.4727 
     29 N7          5.3858    9.5372    5.8767 N.pl3     1 <0>        -0.0294 
     30 O1          0.6333    3.1419    8.5362 O.2       1 <0>        -0.6163 
     31 F1         -2.0512   -1.3949    6.3695 F         1 <0>        -0.2000 
     32 F2         -0.2601   -1.1873    7.5699 F         1 <0>        -0.2000 
     33 F3         -1.8725   -2.4529    8.2518 F         1 <0>        -0.2000 
     34 H1          5.0749   12.8166    4.9397 H         1 <0>         0.0600 
     35 H2          3.8165   11.8550    5.7087 H         1 <0>         0.0600 
     36 H3          5.3265   12.1760    6.5564 H         1 <0>         0.0600 
     37 H4          5.0957   11.1774    2.8969 H         1 <0>         0.0600 
     38 H5          5.4029    9.4664    3.1692 H         1 <0>         0.0600 
     39 H6          3.8594   10.1703    3.6441 H         1 <0>         0.0600 
     40 H7         -5.0854    0.7381    9.9696 H         1 <0>         0.1150 
     41 H8         -4.0194   -1.2160    8.8556 H         1 <0>         0.1150 
     42 H9         -3.9080    2.9078   10.0527 H         1 <0>         0.1150 
     43 H10         4.1105    7.0145    9.5711 H         1 <0>         0.1150 
     44 H11         1.9598    7.6170    5.8727 H         1 <0>         0.1150 
     45 H12         2.2047    5.7108   10.4632 H         1 <0>         0.1150 
     46 H13         0.0427    6.3503    6.7814 H         1 <0>         0.1150 
     47 H14        -0.5705    1.1905    7.9373 H         1 <0>         0.1150 
     48 H15         9.4628    7.8615    6.6905 H         1 <0>         0.0181 
     49 H16         6.5814   10.8711    4.8501 H         1 <0>         0.0600 
     50 H17         5.1417    5.4525    8.5638 H         1 <0>         0.3600 
     51 H18         6.7748    4.9446    8.7697 H         1 <0>         0.3600 
     52 H19        -0.8974    5.7078    9.5133 H         1 <0>         0.2912 
     53 H20        -2.1401    4.2405    9.5246 H         1 <0>         0.2912 
@<TRIPOS>BOND
     1    1   20 1    
     2    1   34 1    
     3    1   35 1    
     4    1   36 1    
     5    2   20 1    
     6    2   37 1    
     7    2   38 1    
     8    2   39 1    
     9    3    4 ar   
    10    3    5 ar   
    11    3   40 1    
    12    4   14 ar   
    13    4   41 1    
    14    5   15 ar   
    15    5   42 1    
    16    6    8 ar   
    17    6   12 ar   
    18    6   43 1    
    19    7    9 ar   
    20    7   12 ar   
    21    7   44 1    
    22    8   13 ar   
    23    8   45 1    
    24    9   13 ar   
    25    9   46 1    
    26   10   14 ar   
    27   10   15 ar   
    28   10   47 1    
    29   11   24 ar   
    30   11   25 ar   
    31   11   48 1    
    32   12   17 1    
    33   13   27 1    
    34   14   22 1    
    35   15   28 1    
    36   16   17 ar   
    37   16   18 ar   
    38   16   19 ar   
    39   17   26 ar   
    40   18   23 1    
    41   18   24 ar   
    42   19   25 ar   
    43   19   29 ar   
    44   20   29 1    
    45   20   49 1    
    46   21   27 am   BACKBONE|DICT|INTERRES
    47   21   28 am   BACKBONE|DICT|INTERRES
    48   21   30 2    
    49   22   31 1    
    50   22   32 1    
    51   22   33 1    
    52   23   50 1    
    53   23   51 1    
    54   26   29 ar   
    55   27   52 1    
    56   28   53 1    
@<TRIPOS>SUBSTRUCTURE
     1 <0>         1 GROUP             0       ****    0 ROOT    
@<TRIPOS>MOLECULE
src-ligand
53   56    1
SMALL
USER_CHARGES


@<TRIPOS>ATOM
      1 C1          4.6594   12.0783    5.7346 C.3       1 <0>        -0.1800 
      2 C2          4.6357   10.7018    3.5915 C.3       1 <0>        -0.1800 
      3 C3         -4.2835    0.8398    9.5948 C.ar      1 <0>        -0.1150 
      4 C4         -3.7333   -0.2988    8.9771 C.ar      1 <0>        -0.1150 
      5 C5         -3.5531    2.0421    9.6358 C.ar      1 <0>        -0.1150 
      6 C6          2.0929    6.8248    6.5320 C.ar      1 <0>        -0.1150 
      7 C7          3.0890    6.9971    8.7443 C.ar      1 <0>        -0.1150 
      8 C8          1.0379    6.0606    7.0665 C.ar      1 <0>        -0.1150 
      9 C9          2.0362    6.2320    9.2817 C.ar      1 <0>        -0.1150 
     10 C10        -1.7172    0.9653    8.4480 C.ar      1 <0>        -0.1150 
     11 C11         8.3011    8.1056    6.6695 C.ar      1 <0>         0.8060 
     12 C12         3.1304    7.2918    7.3660 C.ar      1 <0>         0.0000 
     13 C13         1.0077    5.7440    8.4404 C.ar      1 <0>         0.1066 
     14 C14        -2.4468   -0.2422    8.3991 C.ar      1 <0>         0.1500 
     15 C15        -2.2713    2.1199    9.0531 C.ar      1 <0>         0.1066 
     16 C16         5.6364    7.8158    6.9281 C.ar      1 <0>        -0.5166 
     17 C17         4.2303    8.0802    6.8084 C.ar      1 <0>         0.3149 
     18 C18         6.5237    6.8631    7.4848 C.ar      1 <0>         0.8027 
     19 C19         6.2594    8.8866    6.2363 C.ar      1 <0>         0.8031 
     20 C20         5.2777   10.8922    4.9759 C.3       1 <0>         0.0625 
     21 C21        -0.3522    3.6754    8.7197 C.2       1 <0>         0.7661 
     22 C22        -1.8311   -1.4724    7.7484 C.3       1 <0>         0.4500 
     23 N1          6.1118    5.7257    8.1728 N.pl3     1 <0>        -0.9200 
     24 N2          7.8538    7.0402    7.3403 N.ar      1 <0>        -0.8250 
     25 N3          7.6007    9.0768    6.0804 N.ar      1 <0>        -0.8768 
     26 N4          3.9912    9.1663    6.1109 N.2       1 <0>        -0.4195 
     27 N5         -0.0957    4.9812    8.9105 N.am      1 <0>        -0.4727 
     28 N6         -1.5857    3.3617    9.1531 N.am      1 <0>        -0.4727 
     29 N7          5.2105    9.6663    5.7634 N.pl3     1 <0>        -0.0294 
     30 O1          0.4205    2.8833    8.1832 O.2       1 <0>        -0.6163 
     31 F1         -2.2719   -2.5965    8.3147 F         1 <0>        -0.2000 
     32 F2         -2.1347   -1.5118    6.4508 F         1 <0>        -0.2000 
     33 F3         -0.5060   -1.4199    7.8784 F         1 <0>        -0.2000 
     34 H1          4.7830   13.0064    5.1761 H         1 <0>         0.0600 
     35 H2          3.5917   11.9348    5.9042 H         1 <0>         0.0600 
     36 H3          5.1360   12.2129    6.7061 H         1 <0>         0.0600 
     37 H4          4.7584   11.5946    2.9780 H         1 <0>         0.0600 
     38 H5          5.0959    9.8698    3.0576 H         1 <0>         0.0600 
     39 H6          3.5671   10.4984    3.6683 H         1 <0>         0.0600 
     40 H7         -5.2664    0.7898   10.0397 H         1 <0>         0.1150 
     41 H8         -4.3013   -1.2172    8.9570 H         1 <0>         0.1150 
     42 H9         -3.9869    2.9081   10.1148 H         1 <0>         0.1150 
     43 H10         2.1060    7.0500    5.4754 H         1 <0>         0.1150 
     44 H11         3.8636    7.3673    9.4001 H         1 <0>         0.1150 
     45 H12         0.2541    5.7114    6.4103 H         1 <0>         0.1150 
     46 H13         2.0314    6.0437   10.3445 H         1 <0>         0.1150 
     47 H14        -0.7242    0.9790    8.0254 H         1 <0>         0.1150 
     48 H15         9.3747    8.1897    6.5893 H         1 <0>         0.0181 
     49 H16         6.3328   11.1194    4.8184 H         1 <0>         0.0600 
     50 H17         5.1343    5.5013    8.2911 H         1 <0>         0.3600 
     51 H18         6.7833    5.0603    8.5272 H         1 <0>         0.3600 
     52 H19        -0.7995    5.5061    9.4061 H         1 <0>         0.2912 
     53 H20        -2.1202    4.1159    9.5557 H         1 <0>         0.2912 
@<TRIPOS>BOND
     1    1   20 1    
     2    1   34 1    
     3    1   35 1    
     4    1   36 1    
     5    2   20 1    
     6    2   37 1    
     7    2   38 1    
     8    2   39 1    
     9    3    4 ar   
    10    3    5 ar   
    11    3   40 1    
    12    4   14 ar   
    13    4   41 1    
    14    5   15 ar   
    15    5   42 1    
    16    6    8 ar   
    17    6   12 ar   
    18    6   43 1    
    19    7    9 ar   
    20    7   12 ar   
    21    7   44 1    
    22    8   13 ar   
    23    8   45 1    
    24    9   13 ar   
    25    9   46 1    
    26   10   14 ar   
    27   10   15 ar   
    28   10   47 1    
    29   11   24 ar   
    30   11   25 ar   
    31   11   48 1    
    32   12   17 1    
    33   13   27 1    
    34   14   22 1    
    35   15   28 1    
    36   16   17 ar   
    37   16   18 ar   
    38   16   19 ar   
    39   17   26 ar   
    40   18   23 1    
    41   18   24 ar   
    42   19   25 ar   
    43   19   29 ar   
    44   20   29 1    
    45   20   49 1    
    46   21   27 am   BACKBONE|DICT|INTERRES
    47   21   28 am   BACKBONE|DICT|INTERRES
    48   21   30 2    
    49   22   31 1    
    50   22   32 1    
    51   22   33 1    
    52   23   50 1    
    53   23   51 1    
    54   26   29 ar   
    55   27   52 1    
    56   28   53 1    
@<TRIPOS>SUBSTRUCTURE
     1 <0>         1 GROUP             0       ****    0 ROOT    
@<TRIPOS>MOLECULE
src-ligand
53   56    1
SMALL
USER_CHARGES


@<TRIPOS>ATOM
      1 C1          4.8191   11.9824    5.5138 C.3       1 <0>        -0.1800 
      2 C2          4.7016   10.4142    3.5037 C.3       1 <0>        -0.1800 
      3 C3         -4.0696    0.8310    9.5693 C.ar      1 <0>        -0.1150 
      4 C4         -3.4761   -0.2651    8.9089 C.ar      1 <0>        -0.1150 
      5 C5         -3.3985    2.0696    9.6086 C.ar      1 <0>        -0.1150 
      6 C6          3.2721    6.8545    8.8777 C.ar      1 <0>        -0.1150 
      7 C7          2.0076    7.1960    6.8250 C.ar      1 <0>        -0.1150 
      8 C8          2.1966    6.1180    9.4168 C.ar      1 <0>        -0.1150 
      9 C9          0.9261    6.4765    7.3645 C.ar      1 <0>        -0.1150 
     10 C10        -1.5304    1.1243    8.3695 C.ar      1 <0>        -0.1150 
     11 C11         8.3813    7.9887    6.6341 C.ar      1 <0>         0.8060 
     12 C12         3.1948    7.3835    7.5693 C.ar      1 <0>         0.0000 
     13 C13         1.0285    5.9162    8.6521 C.ar      1 <0>         0.1066 
     14 C14        -2.2015   -0.1218    8.3164 C.ar      1 <0>         0.1500 
     15 C15        -2.1244    2.2339    9.0283 C.ar      1 <0>         0.1066 
     16 C16         5.7257    7.7902    7.0273 C.ar      1 <0>        -0.5166 
     17 C17         4.3204    8.1079    6.9622 C.ar      1 <0>         0.3149 
     18 C18         6.6112    6.8269    7.5694 C.ar      1 <0>         0.8027 
     19 C19         6.3466    8.7803    6.2233 C.ar      1 <0>         0.8031 
     20 C20         5.3837   10.7147    4.8491 C.3       1 <0>         0.0625 
     21 C21        -0.2282    3.8677    8.9771 C.2       1 <0>         0.7661 
     22 C22        -1.5656   -1.3085    7.6138 C.3       1 <0>         0.4500 
     23 N1          6.2014    5.7076    8.2876 N.pl3     1 <0>        -0.9200 
     24 N2          7.9403    6.9709    7.3799 N.ar      1 <0>        -0.8250 
     25 N3          7.6780    8.9079    5.9760 N.ar      1 <0>        -0.8768 
     26 N4          4.0926    9.1478    6.1916 N.2       1 <0>        -0.4195 
     27 N5         -0.0590    5.1818    9.1716 N.am      1 <0>        -0.4727 
     28 N6         -1.5097    3.5116    9.1689 N.am      1 <0>        -0.4727 
     29 N7          5.3081    9.5644    5.7425 N.pl3     1 <0>        -0.0294 
     30 O1          0.6904    3.1076    8.6726 O.2       1 <0>        -0.6163 
     31 F1         -0.2415   -1.1787    7.5694 F         1 <0>        -0.2000 
     32 F2         -1.8558   -2.4437    8.2522 F         1 <0>        -0.2000 
     33 F3         -2.0329   -1.3872    6.3695 F         1 <0>        -0.2000 
     34 H1          4.9500   12.8526    4.8695 H         1 <0>         0.0600 
     35 H2          3.7539   11.8860    5.7268 H         1 <0>         0.0600 
     36 H3          5.3288   12.1926    6.4536 H         1 <0>         0.0600 
     37 H4          4.8268   11.2438    2.8072 H         1 <0>         0.0600 
     38 H5          5.1282    9.5254    3.0372 H         1 <0>         0.0600 
     39 H6          3.6313   10.2436    3.6265 H         1 <0>         0.0600 
     40 H7         -5.0655    0.7463    9.9699 H         1 <0>         0.1150 
     41 H8         -4.0034   -1.2054    8.8481 H         1 <0>         0.1150 
     42 H9         -3.8809    2.9070   10.0690 H         1 <0>         0.1150 
     43 H10         4.1571    7.0096    9.4773 H         1 <0>         0.1150 
     44 H11         1.9253    7.5943    5.8240 H         1 <0>         0.1150 
     45 H12         2.2744    5.7060   10.4127 H         1 <0>         0.1150 
     46 H13         0.0285    6.3357    6.7793 H         1 <0>         0.1150 
     47 H14        -0.5481    1.2011    7.9381 H         1 <0>         0.1150 
     48 H15         9.4531    8.0728    6.5326 H         1 <0>         0.0181 
     49 H16         6.4394   10.8989    4.6453 H         1 <0>         0.0600 
     50 H17         5.2261    5.5187    8.4697 H         1 <0>         0.3600 
     51 H18         6.8718    5.0578    8.6784 H         1 <0>         0.3600 
     52 H19        -0.8806    5.7072    9.4569 H         1 <0>         0.2912 
     53 H20        -2.1214    4.2561    9.4829 H         1 <0>         0.2912 
@<TRIPOS>BOND
     1    1   20 1    
     2    1   34 1    
     3    1   35 1    
     4    1   36 1    
     5    2   20 1    
     6    2   37 1    
     7    2   38 1    
     8    2   39 1    
     9    3    4 ar   
    10    3    5 ar   
    11    3   40 1    
    12    4   14 ar   
    13    4   41 1    
    14    5   15 ar   
    15    5   42 1    
    16    6    8 ar   
    17    6   12 ar   
    18    6   43 1    
    19    7    9 ar   
    20    7   12 ar   
    21    7   44 1    
    22    8   13 ar   
    23    8   45 1    
    24    9   13 ar   
    25    9   46 1    
    26   10   14 ar   
    27   10   15 ar   
    28   10   47 1    
    29   11   24 ar   
    30   11   25 ar   
    31   11   48 1    
    32   12   17 1    
    33   13   27 1    
    34   14   22 1    
    35   15   28 1    
    36   16   17 ar   
    37   16   18 ar   
    38   16   19 ar   
    39   17   26 ar   
    40   18   23 1    
    41   18   24 ar   
    42   19   25 ar   
    43   19   29 ar   
    44   20   29 1    
    45   20   49 1    
    46   21   27 am   BACKBONE|DICT|INTERRES
    47   21   28 am   BACKBONE|DICT|INTERRES
    48   21   30 2    
    49   22   31 1    
    50   22   32 1    
    51   22   33 1    
    52   23   50 1    
    53   23   51 1    
    54   26   29 ar   
    55   27   52 1    
    56   28   53 1    
@<TRIPOS>SUBSTRUCTURE
     1 <0>         1 GROUP             0       ****    0 ROOT    
