@<TRIPOS>MOLECULE
tgfr1-ligand
39   42    1
SMALL
USER_CHARGES


@<TRIPOS>ATOM
      1 C1         10.8760   64.0945    5.9493 C.3       1 <0>        -0.0650 
      2 C2         18.2528   68.0775    9.4867 C.ar      1 <0>        -0.2063 
      3 C3         17.3891   67.2188   10.1901 C.ar      1 <0>        -0.0041 
      4 C4         13.7750   63.5313    3.5317 C.ar      1 <0>         0.2270 
      5 C5         18.1793   68.1531    8.0834 C.ar      1 <0>        -0.0973 
      6 C6         16.4519   66.4365    9.4895 C.ar      1 <0>        -0.4971 
      7 C7         12.4903   63.4445    4.0962 C.ar      1 <0>        -0.4470 
      8 C8         14.7499   64.3137    4.1766 C.ar      1 <0>        -0.4470 
      9 C9         19.0772   68.9082    3.1675 C.ar      1 <0>        -0.4470 
     10 C10        16.6972   68.5013    3.0621 C.ar      1 <0>        -0.4470 
     11 C11        19.0262   69.2385    1.7989 C.ar      1 <0>         0.4730 
     12 C12        16.7527   68.8501    1.6989 C.ar      1 <0>         0.4730 
     13 C13        12.2367   64.1495    5.2881 C.ar      1 <0>         0.3700 
     14 C14        17.8909   68.5138    3.8187 C.ar      1 <0>         0.4920 
     15 C15        17.2378   67.3656    7.3796 C.ar      1 <0>        -0.4475 
     16 C16        16.3620   66.4973    8.0838 C.ar      1 <0>         0.8976 
     17 C17        14.4111   64.9902    5.3753 C.ar      1 <0>         0.4850 
     18 C18        17.1076   67.3927    5.9700 C.ar      1 <0>         0.7857 
     19 C19        15.4102   65.8270    6.0882 C.ar      1 <0>         0.7739 
     20 N1         17.8911   69.2101    1.0713 N.ar      1 <0>        -0.6780 
     21 N2         13.1676   64.8995    5.9119 N.ar      1 <0>        -0.6780 
     22 N3         15.4625   65.7448    7.4228 N.ar      1 <0>        -0.8760 
     23 N4         16.1985   66.6148    5.3496 N.ar      1 <0>        -0.7893 
     24 N5         17.9500   68.2044    5.1878 N.pl3     1 <0>        -0.7800 
     25 H1         10.1089   63.7781    5.2422 H         1 <0>         0.0600 
     26 H2         10.5954   65.0748    6.3362 H         1 <0>         0.0600 
     27 H3         10.8908   63.3885    6.7797 H         1 <0>         0.0600 
     28 H4         18.9714   68.6794   10.0245 H         1 <0>         0.1523 
     29 H5         17.4442   67.1600   11.2673 H         1 <0>         0.1384 
     30 H6         14.0098   63.0056    2.6181 H         1 <0>         0.0650 
     31 H7         18.8486   68.8213    7.5628 H         1 <0>         0.1471 
     32 H8         15.7906   65.7791   10.0346 H         1 <0>         0.2226 
     33 H9         11.7215   62.8503    3.6244 H         1 <0>         0.1550 
     34 H10        15.7391   64.3845    3.7491 H         1 <0>         0.1550 
     35 H11        20.0171   68.9508    3.6978 H         1 <0>         0.1550 
     36 H12        15.7466   68.2434    3.5035 H         1 <0>         0.1550 
     37 H13        19.9228   69.5359    1.2755 H         1 <0>         0.0120 
     38 H14        15.8554   68.8468    1.0980 H         1 <0>         0.0120 
     39 H15        18.7580   68.5618    5.6733 H         1 <0>         0.3800 
@<TRIPOS>BOND
     1    1   13 1    
     2    1   25 1    
     3    1   26 1    
     4    1   27 1    
     5    2    3 ar   
     6    2    5 ar   
     7    2   28 1    
     8    3    6 ar   
     9    3   29 1    
    10    4    7 ar   
    11    4    8 ar   
    12    4   30 1    
    13    5   15 ar   
    14    5   31 1    
    15    6   16 ar   
    16    6   32 1    
    17    7   13 ar   
    18    7   33 1    
    19    8   17 ar   
    20    8   34 1    
    21    9   11 ar   
    22    9   14 ar   
    23    9   35 1    
    24   10   12 ar   
    25   10   14 ar   
    26   10   36 1    
    27   11   20 ar   
    28   11   37 1    
    29   12   20 ar   
    30   12   38 1    
    31   13   21 ar   
    32   14   24 1    
    33   15   16 ar   
    34   15   18 ar   
    35   16   22 ar   
    36   17   19 1    
    37   17   21 ar   
    38   18   23 ar   
    39   18   24 1    
    40   19   22 ar   
    41   19   23 ar   
    42   24   39 1    
@<TRIPOS>SUBSTRUCTURE
     1 <0>         1 GROUP             0       ****    0 ROOT    
@<TRIPOS>MOLECULE
tgfr1-ligand
39   42    1
SMALL
USER_CHARGES


@<TRIPOS>ATOM
      1 C1         13.6485   63.3971    2.9316 C.3       1 <0>        -0.0650 
      2 C2         18.2055   68.3260    9.7969 C.ar      1 <0>        -0.2063 
      3 C3         17.2338   67.6752   10.5754 C.ar      1 <0>        -0.0041 
      4 C4         11.6518   64.6550    5.9310 C.ar      1 <0>         0.2270 
      5 C5         18.1339   68.2790    8.3932 C.ar      1 <0>        -0.0973 
      6 C6         16.1947   66.9648    9.9474 C.ar      1 <0>        -0.4971 
      7 C7         11.9515   63.9797    4.7360 C.ar      1 <0>        -0.4470 
      8 C8         12.6655   65.4014    6.5636 C.ar      1 <0>        -0.4470 
      9 C9         16.7251   68.1668    3.2859 C.ar      1 <0>        -0.4470 
     10 C10        18.9948   68.9460    3.5392 C.ar      1 <0>        -0.4470 
     11 C11        16.7914   68.5931    1.9481 C.ar      1 <0>         0.4730 
     12 C12        18.9696   69.3007    2.1752 C.ar      1 <0>         0.4730 
     13 C13        13.2523   64.0993    4.2095 C.ar      1 <0>         0.3700 
     14 C14        17.8458   68.3713    4.1228 C.ar      1 <0>         0.4920 
     15 C15        17.0857   67.5657    7.7626 C.ar      1 <0>        -0.4475 
     16 C16        16.1001   66.9018    8.5427 C.ar      1 <0>         0.8976 
     17 C17        13.9510   65.4464    5.9713 C.ar      1 <0>         0.4850 
     18 C18        16.9533   67.4728    6.3570 C.ar      1 <0>         0.7857 
     19 C19        15.0659   66.1658    6.6220 C.ar      1 <0>         0.7739 
     20 N1         17.8874   69.1406    1.3883 N.ar      1 <0>        -0.6780 
     21 N2         14.2274   64.8111    4.8079 N.ar      1 <0>        -0.6780 
     22 N3         15.0905   66.2180    7.9595 N.ar      1 <0>        -0.8760 
     23 N4         15.9504   66.7594    5.8200 N.ar      1 <0>        -0.7893 
     24 N5         17.8821   68.1001    5.5040 N.pl3     1 <0>        -0.7800 
     25 H1         12.8969   62.6738    2.6196 H         1 <0>         0.0600 
     26 H2         14.5959   62.8937    3.0828 H         1 <0>         0.0600 
     27 H3         13.7970   64.1010    2.1186 H         1 <0>         0.0600 
     28 H4         18.9989   68.8805   10.2791 H         1 <0>         0.1523 
     29 H5         17.2796   67.7269   11.6540 H         1 <0>         0.1384 
     30 H6         10.6602   64.5945    6.3492 H         1 <0>         0.0650 
     31 H7         18.8898   68.7944    7.8226 H         1 <0>         0.1471 
     32 H8         15.4460   66.4863   10.5617 H         1 <0>         0.2226 
     33 H9         11.1957   63.3977    4.2299 H         1 <0>         0.1550 
     34 H10        12.4576   65.9186    7.4881 H         1 <0>         0.1550 
     35 H11        15.7905   67.7581    3.6340 H         1 <0>         0.1550 
     36 H12        19.8892   69.1216    4.1197 H         1 <0>         0.1550 
     37 H13        15.9299   68.5007    1.3047 H         1 <0>         0.0120 
     38 H14        19.8398   69.7381    1.7092 H         1 <0>         0.0120 
     39 H15        18.6923   68.4719    5.9738 H         1 <0>         0.3800 
@<TRIPOS>BOND
     1    1   13 1    
     2    1   25 1    
     3    1   26 1    
     4    1   27 1    
     5    2    3 ar   
     6    2    5 ar   
     7    2   28 1    
     8    3    6 ar   
     9    3   29 1    
    10    4    7 ar   
    11    4    8 ar   
    12    4   30 1    
    13    5   15 ar   
    14    5   31 1    
    15    6   16 ar   
    16    6   32 1    
    17    7   13 ar   
    18    7   33 1    
    19    8   17 ar   
    20    8   34 1    
    21    9   11 ar   
    22    9   14 ar   
    23    9   35 1    
    24   10   12 ar   
    25   10   14 ar   
    26   10   36 1    
    27   11   20 ar   
    28   11   37 1    
    29   12   20 ar   
    30   12   38 1    
    31   13   21 ar   
    32   14   24 1    
    33   15   16 ar   
    34   15   18 ar   
    35   16   22 ar   
    36   17   19 1    
    37   17   21 ar   
    38   18   23 ar   
    39   18   24 1    
    40   19   22 ar   
    41   19   23 ar   
    42   24   39 1    
@<TRIPOS>SUBSTRUCTURE
     1 <0>         1 GROUP             0       ****    0 ROOT    
