@<TRIPOS>MOLECULE
thb-ligand
51   53    1
SMALL
USER_CHARGES


@<TRIPOS>ATOM
      1 C1         16.1368   24.9645   49.9711 C.3       1 <0>        -0.0650 
      2 C2         15.1031   21.5611   46.2507 C.3       1 <0>        -0.0650 
      3 C3         10.3715   23.3814   41.1551 C.ar      1 <0>        -0.1150 
      4 C4         11.5323   23.9960   40.6519 C.ar      1 <0>        -0.1150 
      5 C5          9.9410   23.6696   42.4543 C.ar      1 <0>        -0.1150 
      6 C6         12.2352   24.9336   41.4261 C.ar      1 <0>        -0.1150 
      7 C7         10.6731   24.5661   43.2452 C.ar      1 <0>        -0.1150 
      8 C8         13.2814   25.0235   47.6359 C.ar      1 <0>        -0.1150 
      9 C9         12.0429   25.5698   47.2617 C.ar      1 <0>        -0.1150 
     10 C10        15.8174   22.5101   50.4162 C.ar      1 <0>        -0.1150 
     11 C11        15.3018   20.9174   48.6718 C.ar      1 <0>        -0.1150 
     12 C12        14.0884   25.2727   45.3427 C.ar      1 <0>        -0.1150 
     13 C13        12.6120   26.2435   43.5322 C.3       1 <0>         0.1100 
     14 C14        15.6782   24.3673   47.0591 C.3       1 <0>         0.1100 
     15 C15        16.0130   20.0622   52.1151 C.3       1 <0>         0.1400 
     16 C16        15.8749   23.5502   49.4706 C.ar      1 <0>        -0.1150 
     17 C17        15.3682   21.9308   47.7014 C.ar      1 <0>        -0.1150 
     18 C18        11.8176   25.2243   42.7327 C.ar      1 <0>        -0.1150 
     19 C19        14.3122   24.8906   46.6789 C.ar      1 <0>        -0.1150 
     20 C20        11.8429   25.9862   45.9345 C.ar      1 <0>         0.1500 
     21 C21        15.4928   21.1938   50.0351 C.ar      1 <0>         0.0850 
     22 C22        12.8500   25.8183   44.9665 C.ar      1 <0>        -0.1150 
     23 C23        15.6482   23.2612   48.0999 C.ar      1 <0>        -0.1150 
     24 C24        17.0750   18.9840   51.9193 C.2       1 <0>         0.6000 
     25 O1         10.6750   26.5815   45.5816 O.3       1 <0>        -0.5850 
     26 O2         16.7050   17.7834   51.8520 O.co2     1 <0>        -0.8000 
     27 O3         18.2620   19.3816   51.8518 O.co2     1 <0>        -0.8000 
     28 O4         15.2410   20.1784   50.9286 O.3       1 <0>        -0.2850 
     29 H1         15.3365   25.6401   49.6709 H         1 <0>         0.0600 
     30 H2         16.1969   24.9965   51.0594 H         1 <0>         0.0600 
     31 H3         17.0749   25.3539   49.5807 H         1 <0>         0.0600 
     32 H4         14.3824   22.2383   45.7936 H         1 <0>         0.0600 
     33 H5         16.0275   21.5958   45.6747 H         1 <0>         0.0600 
     34 H6         14.6889   20.5559   46.1725 H         1 <0>         0.0600 
     35 H7          9.8104   22.6739   40.5673 H         1 <0>         0.1150 
     36 H8         11.8754   23.7816   39.6515 H         1 <0>         0.1150 
     37 H9          9.0634   23.1857   42.8569 H         1 <0>         0.1150 
     38 H10        13.1004   25.4223   41.0056 H         1 <0>         0.1150 
     39 H11        10.3117   24.7055   44.2461 H         1 <0>         0.1150 
     40 H12        13.4307   24.7249   48.6624 H         1 <0>         0.1150 
     41 H13        11.2608   25.6941   47.9973 H         1 <0>         0.1150 
     42 H14        15.9479   22.7588   51.4518 H         1 <0>         0.1150 
     43 H15        15.0749   19.9076   48.3703 H         1 <0>         0.1150 
     44 H16        14.8731   25.1617   44.6076 H         1 <0>         0.1150 
     45 H17        12.0978   27.2048   43.5014 H         1 <0>         0.0600 
     46 H18        13.5760   26.4179   43.0529 H         1 <0>         0.0600 
     47 H19        16.2749   25.2110   47.3962 H         1 <0>         0.0600 
     48 H20        16.1657   23.9898   46.1598 H         1 <0>         0.0600 
     49 H21        15.3513   19.7536   52.9243 H         1 <0>         0.0300 
     50 H22        16.4909   20.9816   52.4444 H         1 <0>         0.0300 
     51 H23        10.6165   26.7574   44.6544 H         1 <0>         0.4350 
@<TRIPOS>BOND
     1    1   16 1    
     2    1   29 1    
     3    1   30 1    
     4    1   31 1    
     5    2   17 1    
     6    2   32 1    
     7    2   33 1    
     8    2   34 1    
     9    3    4 ar   
    10    3    5 ar   
    11    3   35 1    
    12    4    6 ar   
    13    4   36 1    
    14    5    7 ar   
    15    5   37 1    
    16    6   18 ar   
    17    6   38 1    
    18    7   18 ar   
    19    7   39 1    
    20    8    9 ar   
    21    8   19 ar   
    22    8   40 1    
    23    9   20 ar   
    24    9   41 1    
    25   10   16 ar   
    26   10   21 ar   
    27   10   42 1    
    28   11   17 ar   
    29   11   21 ar   
    30   11   43 1    
    31   12   19 ar   
    32   12   22 ar   
    33   12   44 1    
    34   13   18 1    
    35   13   22 1    
    36   13   45 1    
    37   13   46 1    
    38   14   19 1    
    39   14   23 1    
    40   14   47 1    
    41   14   48 1    
    42   15   24 1    
    43   15   28 1    
    44   15   49 1    
    45   15   50 1    
    46   16   23 ar   
    47   17   23 ar   
    48   20   22 ar   
    49   20   25 1    
    50   21   28 1    
    51   24   26 1    
    52   24   27 2    
    53   25   51 1    
@<TRIPOS>SUBSTRUCTURE
     1 <0>         1 GROUP             0       ****    0 ROOT    
@<TRIPOS>MOLECULE
thb-ligand
51   53    1
SMALL
USER_CHARGES


@<TRIPOS>ATOM
      1 C1         15.8764   24.5945   50.3698 C.3       1 <0>        -0.0650 
      2 C2         15.1594   21.8120   46.0951 C.3       1 <0>        -0.0650 
      3 C3         10.3787   23.3811   41.1541 C.ar      1 <0>        -0.1150 
      4 C4         11.5455   23.9845   40.6518 C.ar      1 <0>        -0.1150 
      5 C5          9.9816   23.6286   42.4722 C.ar      1 <0>        -0.1150 
      6 C6         12.2739   24.8914   41.4389 C.ar      1 <0>        -0.1150 
      7 C7         10.7540   24.4736   43.2824 C.ar      1 <0>        -0.1150 
      8 C8         13.1404   25.1231   47.7665 C.ar      1 <0>        -0.1150 
      9 C9         11.9273   25.6478   47.2864 C.ar      1 <0>        -0.1150 
     10 C10        15.8767   22.0811   50.3633 C.ar      1 <0>        -0.1150 
     11 C11        15.5655   20.7717   48.3437 C.ar      1 <0>        -0.1150 
     12 C12        14.0864   25.2646   45.5168 C.ar      1 <0>        -0.1150 
     13 C13        12.7248   26.1324   43.5678 C.3       1 <0>         0.1100 
     14 C14        15.5752   24.4816   47.3800 C.3       1 <0>         0.1100 
     15 C15        16.0344   19.6234   51.7851 C.3       1 <0>         0.1400 
     16 C16        15.7491   23.2731   49.6251 C.ar      1 <0>        -0.1150 
     17 C17        15.4222   21.9486   47.5867 C.ar      1 <0>        -0.1150 
     18 C18        11.8934   25.1404   42.7657 C.ar      1 <0>        -0.1150 
     19 C19        14.2284   24.9544   46.8842 C.ar      1 <0>        -0.1150 
     20 C20        11.8116   26.0003   45.9291 C.ar      1 <0>         0.1500 
     21 C21        15.8163   20.8235   49.7244 C.ar      1 <0>         0.0850 
     22 C22        12.8732   25.7807   45.0345 C.ar      1 <0>        -0.1150 
     23 C23        15.5531   23.2121   48.2201 C.ar      1 <0>        -0.1150 
     24 C24        16.1203   18.1815   52.2646 C.2       1 <0>         0.6000 
     25 O1         10.6750   26.5815   45.4659 O.3       1 <0>        -0.5850 
     26 O2         17.0749   17.4819   51.8522 O.co2     1 <0>        -0.8000 
     27 O3         15.2219   17.7616   53.0250 O.co2     1 <0>        -0.8000 
     28 O4         15.9965   19.6229   50.3669 O.3       1 <0>        -0.2850 
     29 H1         15.0870   25.2896   50.0871 H         1 <0>         0.0600 
     30 H2         15.8092   24.4525   51.4492 H         1 <0>         0.0600 
     31 H3         16.8394   25.0588   50.1567 H         1 <0>         0.0600 
     32 H4         14.3700   22.4845   45.7655 H         1 <0>         0.0600 
     33 H5         16.0630   22.0210   45.5223 H         1 <0>         0.0600 
     34 H6         14.8238   20.8045   45.8520 H         1 <0>         0.0600 
     35 H7          9.7910   22.7078   40.5517 H         1 <0>         0.1150 
     36 H8         11.8751   23.7826   39.6435 H         1 <0>         0.1150 
     37 H9          9.1006   23.1488   42.8743 H         1 <0>         0.1150 
     38 H10        13.1346   25.3846   41.0140 H         1 <0>         0.1150 
     39 H11        10.4251   24.5690   44.3002 H         1 <0>         0.1150 
     40 H12        13.2332   24.8749   48.8130 H         1 <0>         0.1150 
     41 H13        11.1008   25.8078   47.9642 H         1 <0>         0.1150 
     42 H14        16.0568   22.1550   51.4252 H         1 <0>         0.1150 
     43 H15        15.4991   19.8081   47.8592 H         1 <0>         0.1150 
     44 H16        14.9154   25.1247   44.8375 H         1 <0>         0.1150 
     45 H17        12.2866   27.1263   43.4679 H         1 <0>         0.0600 
     46 H18        13.7187   26.2122   43.1274 H         1 <0>         0.0600 
     47 H19        16.0658   25.3049   47.8964 H         1 <0>         0.0600 
     48 H20        16.1986   24.2854   46.5114 H         1 <0>         0.0600 
     49 H21        15.1392   20.0941   52.1968 H         1 <0>         0.0300 
     50 H22        16.9088   20.1637   52.1510 H         1 <0>         0.0300 
     51 H23        10.6745   26.6986   44.5277 H         1 <0>         0.4350 
@<TRIPOS>BOND
     1    1   16 1    
     2    1   29 1    
     3    1   30 1    
     4    1   31 1    
     5    2   17 1    
     6    2   32 1    
     7    2   33 1    
     8    2   34 1    
     9    3    4 ar   
    10    3    5 ar   
    11    3   35 1    
    12    4    6 ar   
    13    4   36 1    
    14    5    7 ar   
    15    5   37 1    
    16    6   18 ar   
    17    6   38 1    
    18    7   18 ar   
    19    7   39 1    
    20    8    9 ar   
    21    8   19 ar   
    22    8   40 1    
    23    9   20 ar   
    24    9   41 1    
    25   10   16 ar   
    26   10   21 ar   
    27   10   42 1    
    28   11   17 ar   
    29   11   21 ar   
    30   11   43 1    
    31   12   19 ar   
    32   12   22 ar   
    33   12   44 1    
    34   13   18 1    
    35   13   22 1    
    36   13   45 1    
    37   13   46 1    
    38   14   19 1    
    39   14   23 1    
    40   14   47 1    
    41   14   48 1    
    42   15   24 1    
    43   15   28 1    
    44   15   49 1    
    45   15   50 1    
    46   16   23 ar   
    47   17   23 ar   
    48   20   22 ar   
    49   20   25 1    
    50   21   28 1    
    51   24   26 1    
    52   24   27 2    
    53   25   51 1    
@<TRIPOS>SUBSTRUCTURE
     1 <0>         1 GROUP             0       ****    0 ROOT    
