@<TRIPOS>MOLECULE
thrb-ligand
65   70    1
SMALL
USER_CHARGES


@<TRIPOS>ATOM
      1 C1         20.8329  -12.1326   18.5438 C.3       1 <0>        -0.1800 
      2 C2         13.7151  -10.0528   21.2071 C.ar      1 <0>        -0.1060 
      3 C3         13.7828  -12.4433   21.6481 C.ar      1 <0>        -0.1060 
      4 C4         12.6647   -9.9052   22.1360 C.ar      1 <0>        -0.0900 
      5 C5         12.7502  -12.2951   22.5897 C.ar      1 <0>        -0.0900 
      6 C6         19.1886  -14.1036   24.2053 C.ar      1 <0>        -0.1150 
      7 C7         20.0505  -13.7771   25.2791 C.ar      1 <0>        -0.1150 
      8 C8         21.1032  -14.3194   22.6827 C.ar      1 <0>        -0.1150 
      9 C9         15.0802  -12.6177   16.5937 C.3       1 <0>        -0.1200 
     10 C10        16.5389  -12.3830   16.9548 C.3       1 <0>        -0.1200 
     11 C11        14.3324  -12.2761   17.8844 C.3       1 <0>         0.1500 
     12 C12        23.6212  -13.5105   25.0828 C.3       1 <0>         0.2000 
     13 C13        20.1145  -12.2070   19.8967 C.3       1 <0>        -0.1200 
     14 C14        18.7703  -14.6315   21.7452 C.3       1 <0>         0.0650 
     15 C15        14.3014  -11.3187   20.9738 C.ar      1 <0>         0.0170 
     16 C16        12.1909  -11.0234   22.8592 C.ar      1 <0>        -0.1190 
     17 C17        19.7088  -14.3563   22.9075 C.ar      1 <0>        -0.1150 
     18 C18        21.4285  -13.7232   25.0142 C.ar      1 <0>         0.0850 
     19 C19        21.9345  -13.9881   23.7605 C.ar      1 <0>         0.0850 
     20 C20        16.6084  -12.8309   18.4174 C.3       1 <0>         0.2100 
     21 C21        18.7858  -12.9843   19.8019 C.3       1 <0>         0.0100 
     22 C22        15.4517  -11.4535   19.9772 C.3       1 <0>         0.3250 
     23 C23        17.6573  -12.0796   19.2688 C.3       1 <0>        -0.0600 
     24 C24        16.8944  -11.5928   20.5059 C.3       1 <0>        -0.0600 
     25 C25        17.2203  -12.7003   21.5060 C.2       1 <0>         0.5000 
     26 C26        11.1409  -10.8842   23.8825 C.2       1 <0>         0.8270 
     27 N1         10.8267   -9.7230   24.4577 N.pl3     1 <0>        -0.8850 
     28 N2         10.4266  -11.9278   24.2850 N.pl3     1 <0>        -0.8850 
     29 N3         15.2771  -12.5417   18.9909 N.4       1 <0>        -0.1000 
     30 N4         18.2902  -13.4022   21.1103 N.am      1 <0>        -0.1400 
     31 O1         16.5543  -12.9235   22.5146 O.2       1 <0>        -0.5000 
     32 O2         22.4482  -13.4196   25.8550 O.3       1 <0>        -0.2850 
     33 O3         23.2830  -13.8507   23.7691 O.3       1 <0>        -0.2850 
     34 H1         21.7273  -11.5136   18.6101 H         1 <0>         0.0600 
     35 H2         21.1488  -13.1241   18.2173 H         1 <0>         0.0600 
     36 H3         20.1933  -11.7248   17.7632 H         1 <0>         0.0600 
     37 H4         14.0781   -9.1802   20.6835 H         1 <0>         0.1410 
     38 H5         14.2005  -13.4262   21.4886 H         1 <0>         0.1410 
     39 H6         12.2413   -8.9226   22.2948 H         1 <0>         0.1290 
     40 H7         12.4256  -13.1772   23.1206 H         1 <0>         0.1290 
     41 H8         18.1212  -14.1300   24.3708 H         1 <0>         0.1150 
     42 H9         19.6606  -13.5605   26.2624 H         1 <0>         0.1150 
     43 H10        21.5285  -14.5168   21.7114 H         1 <0>         0.1150 
     44 H11        14.7661  -12.0091   15.7454 H         1 <0>         0.0600 
     45 H12        14.9241  -13.6668   16.3350 H         1 <0>         0.0600 
     46 H13        17.2267  -12.9227   16.3072 H         1 <0>         0.0600 
     47 H14        16.7592  -11.3180   16.8615 H         1 <0>         0.0600 
     48 H15        14.0272  -11.2290   17.8759 H         1 <0>         0.0600 
     49 H16        13.4344  -12.8830   18.0035 H         1 <0>         0.0600 
     50 H17        24.1483  -12.5559   25.0841 H         1 <0>         0.1000 
     51 H18        24.2739  -14.2870   25.4823 H         1 <0>         0.1000 
     52 H19        20.7902  -12.6801   20.6042 H         1 <0>         0.0600 
     53 H20        19.9389  -11.2026   20.2820 H         1 <0>         0.0600 
     54 H21        19.2819  -15.2564   21.0102 H         1 <0>         0.0600 
     55 H22        17.9245  -15.2231   22.1020 H         1 <0>         0.0600 
     56 H23        16.7463  -13.9124   18.4639 H         1 <0>         0.0600 
     57 H24        18.9293  -13.8574   19.1651 H         1 <0>         0.0600 
     58 H25        15.4705  -10.5230   19.4134 H         1 <0>         0.0600 
     59 H26        18.0447  -11.2263   18.7150 H         1 <0>         0.0600 
     60 H27        17.2831  -10.6489   20.8937 H         1 <0>         0.0600 
     61 H28         9.9632   -9.6512   25.0141 H         1 <0>         0.4455 
     62 H29        11.3816   -8.8987   24.2882 H         1 <0>         0.4455 
     63 H30         9.5762  -11.7683   24.8581 H         1 <0>         0.4455 
     64 H31        10.5656  -12.8498   23.8833 H         1 <0>         0.4455 
     65 H32        14.9748  -13.3692   19.4843 H         1 <0>         0.2900 
@<TRIPOS>BOND
     1    1   13 1    
     2    1   34 1    
     3    1   35 1    
     4    1   36 1    
     5    2    4 ar   
     6    2   15 ar   
     7    2   37 1    
     8    3    5 ar   
     9    3   15 ar   
    10    3   38 1    
    11    4   16 ar   
    12    4   39 1    
    13    5   16 ar   
    14    5   40 1    
    15    6    7 ar   
    16    6   17 ar   
    17    6   41 1    
    18    7   18 ar   
    19    7   42 1    
    20    8   17 ar   
    21    8   19 ar   
    22    8   43 1    
    23    9   10 1    
    24    9   11 1    
    25    9   44 1    
    26    9   45 1    
    27   10   20 1    
    28   10   46 1    
    29   10   47 1    
    30   11   29 1    
    31   11   48 1    
    32   11   49 1    
    33   12   32 1    
    34   12   33 1    
    35   12   50 1    
    36   12   51 1    
    37   13   21 1    
    38   13   52 1    
    39   13   53 1    
    40   14   17 1    
    41   14   30 1    
    42   14   54 1    
    43   14   55 1    
    44   15   22 1    
    45   16   26 1    
    46   18   19 ar   
    47   18   32 1    
    48   19   33 1    
    49   20   23 1    
    50   20   29 1    
    51   20   56 1    
    52   21   23 1    
    53   21   30 1    
    54   21   57 1    
    55   22   24 1    
    56   22   29 1    
    57   22   58 1    
    58   23   24 1    
    59   23   59 1    
    60   24   25 1    
    61   24   60 1    
    62   25   30 am   BACKBONE|DICT|INTERRES
    63   25   31 2    
    64   26   27 1    
    65   26   28 2    
    66   27   61 1    
    67   27   62 1    
    68   28   63 1    
    69   28   64 1    
    70   29   65 1    
@<TRIPOS>SUBSTRUCTURE
     1 <0>         1 GROUP             0       ****    0 ROOT    
