@<TRIPOS>MOLECULE
try1-ligand
70   72    1
SMALL
USER_CHARGES


@<TRIPOS>ATOM
      1 C1         20.5439   27.1193   22.4784 C.3       1 <0>        -0.1800 
      2 C2         22.5189   27.0506   24.0388 C.3       1 <0>        -0.1800 
      3 C3         20.2193   26.5392   24.8807 C.3       1 <0>        -0.1800 
      4 C4         24.0324   18.5502   34.3351 C.3       1 <0>         0.1100 
      5 C5         29.1038   17.2605   29.5758 C.ar      1 <0>        -0.0900 
      6 C6         27.5700   16.1121   28.0852 C.ar      1 <0>        -0.0900 
      7 C7         28.0573   18.0806   30.0337 C.ar      1 <0>        -0.1060 
      8 C8         26.5199   16.9468   28.5284 C.ar      1 <0>        -0.1060 
      9 C9         21.6951   20.9865   26.3967 C.ar      1 <0>        -0.1150 
     10 C10        21.8655   20.4945   27.7011 C.ar      1 <0>        -0.1150 
     11 C11        21.7015   21.1744   31.0426 C.ar      1 <0>         0.2270 
     12 C12        21.7936   20.7149   32.3665 C.ar      1 <0>        -0.4470 
     13 C13        22.7398   23.0731   27.0561 C.ar      1 <0>        -0.1150 
     14 C14        22.2917   24.5796   22.1182 C.3       1 <0>         0.1450 
     15 C15        28.8681   16.2379   28.6360 C.ar      1 <0>        -0.1190 
     16 C16        26.7552   17.9221   29.5269 C.ar      1 <0>         0.2170 
     17 C17        22.1031   22.2930   26.0661 C.ar      1 <0>        -0.1150 
     18 C18        22.4898   21.2707   28.7023 C.ar      1 <0>         0.0000 
     19 C19        22.5982   20.6988   30.0623 C.ar      1 <0>        -0.2920 
     20 C20        22.8032   19.7966   32.6869 C.ar      1 <0>         0.5716 
     21 C21        22.9452   22.5808   28.3673 C.ar      1 <0>        -0.1150 
     22 C22        23.5856   19.7568   30.4804 C.ar      1 <0>         0.3658 
     23 C23        21.3652   24.8615   23.3384 C.3       1 <0>         0.1400 
     24 C24        29.9454   15.2983   28.2793 C.2       1 <0>         0.8270 
     25 C25        21.8686   22.8146   24.6741 C.2       1 <0>         0.6150 
     26 C26        23.6430   23.4805   29.3610 C.2       1 <0>         0.7150 
     27 C27        24.6043   19.1642   29.5325 C.2       1 <0>         0.6192 
     28 C28        21.1760   26.3770   23.6746 C.3       1 <0>         0.0000 
     29 N1         29.6565   14.0439   27.9149 N.pl3     1 <0>        -0.8850 
     30 N2         31.2422   15.6429   28.3027 N.pl3     1 <0>        -0.8850 
     31 N3         23.6626   19.3150   31.7620 N.ar      1 <0>        -0.6780 
     32 N4         25.7144   18.6843   30.1175 N.am      1 <0>        -0.3850 
     33 N5         21.8266   24.1482   24.5333 N.am      1 <0>        -0.5000 
     34 O1         21.6451   23.7614   21.1569 O.3       1 <0>        -0.6830 
     35 O2         24.2830   22.9794   30.3150 O.co2     1 <0>        -0.8000 
     36 O3         21.6427   22.0441   23.7453 O.2       1 <0>        -0.5000 
     37 O4         23.6035   24.7164   29.1710 O.co2     1 <0>        -0.8000 
     38 O5         24.4434   19.1616   28.3157 O.2       1 <0>        -0.5000 
     39 O6         22.9238   19.3746   33.9933 O.3       1 <0>        -0.2866 
     40 H1         20.2659   28.1386   22.7472 H         1 <0>         0.0600 
     41 H2         19.6424   26.6162   22.1312 H         1 <0>         0.0600 
     42 H3         21.2216   27.1972   21.6290 H         1 <0>         0.0600 
     43 H4         22.9871   26.5846   24.9057 H         1 <0>         0.0600 
     44 H5         23.2359   27.0069   23.2199 H         1 <0>         0.0600 
     45 H6         22.3768   28.1038   24.2823 H         1 <0>         0.0600 
     46 H7         20.6459   26.1410   25.8017 H         1 <0>         0.0600 
     47 H8         19.9944   27.5886   25.0728 H         1 <0>         0.0600 
     48 H9         19.2706   26.0294   24.7140 H         1 <0>         0.0600 
     49 H10        24.0613   18.4339   35.4187 H         1 <0>         0.0300 
     50 H11        23.9448   17.5603   33.8858 H         1 <0>         0.0300 
     51 H12        24.9815   18.9971   34.0349 H         1 <0>         0.0300 
     52 H13        30.0794   17.3898   30.0140 H         1 <0>         0.1290 
     53 H14        27.3549   15.3554   27.3448 H         1 <0>         0.1290 
     54 H15        28.2613   18.8161   30.7996 H         1 <0>         0.1410 
     55 H16        25.5280   16.7959   28.1315 H         1 <0>         0.1410 
     56 H17        21.2424   20.3544   25.6485 H         1 <0>         0.1150 
     57 H18        21.5240   19.4965   27.9324 H         1 <0>         0.1150 
     58 H19        20.9501   21.9051   30.7813 H         1 <0>         0.0650 
     59 H20        21.1213   21.0830   33.1266 H         1 <0>         0.1550 
     60 H21        23.0910   24.0665   26.8151 H         1 <0>         0.1150 
     61 H22        22.5890   25.4942   21.6077 H         1 <0>         0.0600 
     62 H23        23.2274   24.1063   22.4204 H         1 <0>         0.0600 
     63 H24        20.3735   24.4620   23.1139 H         1 <0>         0.0600 
     64 H25        30.3804   13.4531   27.5157 H         1 <0>         0.4455 
     65 H26        28.7483   13.6591   28.1263 H         1 <0>         0.4455 
     66 H27        31.9562   15.0206   27.9047 H         1 <0>         0.4455 
     67 H28        31.5094   16.5936   28.5575 H         1 <0>         0.4455 
     68 H29        25.7829   18.8713   31.1090 H         1 <0>         0.3000 
     69 H30        22.0185   24.7076   25.3518 H         1 <0>         0.3000 
     70 H31        20.7484   24.0446   21.0364 H         1 <0>         0.4180 
@<TRIPOS>BOND
     1    1   28 1    
     2    1   40 1    
     3    1   41 1    
     4    1   42 1    
     5    2   28 1    
     6    2   43 1    
     7    2   44 1    
     8    2   45 1    
     9    3   28 1    
    10    3   46 1    
    11    3   47 1    
    12    3   48 1    
    13    4   39 1    
    14    4   49 1    
    15    4   50 1    
    16    4   51 1    
    17    5    7 ar   
    18    5   15 ar   
    19    5   52 1    
    20    6    8 ar   
    21    6   15 ar   
    22    6   53 1    
    23    7   16 ar   
    24    7   54 1    
    25    8   16 ar   
    26    8   55 1    
    27    9   10 ar   
    28    9   17 ar   
    29    9   56 1    
    30   10   18 ar   
    31   10   57 1    
    32   11   12 ar   
    33   11   19 ar   
    34   11   58 1    
    35   12   20 ar   
    36   12   59 1    
    37   13   17 ar   
    38   13   21 ar   
    39   13   60 1    
    40   14   23 1    
    41   14   34 1    
    42   14   61 1    
    43   14   62 1    
    44   15   24 1    
    45   16   32 1    
    46   17   25 1    
    47   18   19 1    
    48   18   21 ar   
    49   19   22 ar   
    50   20   31 ar   
    51   20   39 1    
    52   21   26 1    
    53   22   27 1    
    54   22   31 ar   
    55   23   28 1    
    56   23   33 1    
    57   23   63 1    
    58   24   29 1    
    59   24   30 2    
    60   25   33 am   BACKBONE|DICT|INTERRES
    61   25   36 2    
    62   26   35 1    
    63   26   37 2    
    64   27   32 am   BACKBONE|DICT|INTERRES
    65   27   38 2    
    66   29   64 1    
    67   29   65 1    
    68   30   66 1    
    69   30   67 1    
    70   32   68 1    
    71   33   69 1    
    72   34   70 1    
@<TRIPOS>SUBSTRUCTURE
     1 <0>         1 GROUP             0       ****    0 ROOT    
@<TRIPOS>MOLECULE
try1-ligand
70   72    1
SMALL
USER_CHARGES


@<TRIPOS>ATOM
      1 C1         20.1991   27.2857   23.0737 C.3       1 <0>        -0.1800 
      2 C2         22.0808   27.0796   24.7208 C.3       1 <0>        -0.1800 
      3 C3         19.7646   26.4221   25.3786 C.3       1 <0>        -0.1800 
      4 C4         24.2804   18.2386   34.2812 C.3       1 <0>         0.1100 
      5 C5         27.6019   16.1658   27.9723 C.ar      1 <0>        -0.0900 
      6 C6         29.1379   17.2432   29.5154 C.ar      1 <0>        -0.0900 
      7 C7         26.5639   17.0128   28.4189 C.ar      1 <0>        -0.1060 
      8 C8         28.1020   18.0746   29.9782 C.ar      1 <0>        -0.1060 
      9 C9         21.4090   20.9681   26.6264 C.ar      1 <0>        -0.1150 
     10 C10        21.6384   20.4433   27.9102 C.ar      1 <0>        -0.1150 
     11 C11        21.7074   20.9620   31.2558 C.ar      1 <0>         0.2270 
     12 C12        21.8849   20.4528   32.5535 C.ar      1 <0>        -0.4470 
     13 C13        22.6201   22.9769   27.2416 C.ar      1 <0>        -0.1150 
     14 C14        21.9024   24.8056   22.4514 C.3       1 <0>         0.1450 
     15 C15        28.8921   16.2523   28.5469 C.ar      1 <0>        -0.1190 
     16 C16        26.8048   17.9544   29.4478 C.ar      1 <0>         0.2170 
     17 C17        21.8906   22.2467   26.2791 C.ar      1 <0>        -0.1150 
     18 C18        22.3699   21.1665   28.8773 C.ar      1 <0>         0.0000 
     19 C19        22.5672   20.5601   30.2116 C.ar      1 <0>        -0.2920 
     20 C20        22.9409   19.5573   32.7811 C.ar      1 <0>         0.5716 
     21 C21        22.8622   22.4583   28.5345 C.ar      1 <0>        -0.1150 
     22 C22        23.6186   19.6550   30.5397 C.ar      1 <0>         0.3658 
     23 C23        21.0219   24.9455   23.7281 C.3       1 <0>         0.1400 
     24 C24        29.9494   15.2982   28.1894 C.2       1 <0>         0.8270 
     25 C25        21.6350   22.8086   24.9075 C.2       1 <0>         0.6150 
     26 C26        23.6432   23.3100   29.5010 C.2       1 <0>         0.7150 
     27 C27        24.6309   19.1672   29.5268 C.2       1 <0>         0.6192 
     28 C28        20.7791   26.4174   24.2099 C.3       1 <0>         0.0000 
     29 N1         29.6446   14.0282   27.9146 N.pl3     1 <0>        -0.8850 
     30 N2         31.2430   15.6429   28.1301 N.pl3     1 <0>        -0.8850 
     31 N3         23.7736   19.1595   31.7938 N.ar      1 <0>        -0.6780 
     32 N4         25.7709   18.7015   30.0645 N.am      1 <0>        -0.3850 
     33 N5         21.5358   24.1450   24.8433 N.am      1 <0>        -0.5000 
     34 O1         21.0993   24.8424   21.2857 O.3       1 <0>        -0.6830 
     35 O2         24.4060   22.7593   30.3280 O.co2     1 <0>        -0.8000 
     36 O3         21.4527   22.0719   23.9418 O.2       1 <0>        -0.5000 
     37 O4         23.5566   24.5534   29.4020 O.co2     1 <0>        -0.8000 
     38 O5         24.4431   19.2427   28.3150 O.2       1 <0>        -0.5000 
     39 O6         23.1466   19.0720   34.0553 O.3       1 <0>        -0.2866 
     40 H1         19.9375   28.2828   23.4282 H         1 <0>         0.0600 
     41 H2         19.2986   26.8475   22.6480 H         1 <0>         0.0600 
     42 H3         20.9121   27.4146   22.2595 H         1 <0>         0.0600 
     43 H4         22.5254   26.5291   25.5499 H         1 <0>         0.0600 
     44 H5         22.8365   27.1616   23.9407 H         1 <0>         0.0600 
     45 H6         21.8889   28.0908   25.0808 H         1 <0>         0.0600 
     46 H7         20.1635   25.9343   26.2681 H         1 <0>         0.0600 
     47 H8         19.4983   27.4390   25.6700 H         1 <0>         0.0600 
     48 H9         18.8421   25.9061   25.1153 H         1 <0>         0.0600 
     49 H10        24.3836   18.0433   35.3478 H         1 <0>         0.0300 
     50 H11        24.1728   17.2802   33.7709 H         1 <0>         0.0300 
     51 H12        25.2060   18.7149   33.9543 H         1 <0>         0.0300 
     52 H13        27.3856   15.4314   27.2099 H         1 <0>         0.1290 
     53 H14        30.1101   17.3299   29.9727 H         1 <0>         0.1290 
     54 H15        25.5752   16.8946   28.0022 H         1 <0>         0.1410 
     55 H16        28.3070   18.7823   30.7689 H         1 <0>         0.1410 
     56 H17        20.8438   20.3847   25.9150 H         1 <0>         0.1150 
     57 H18        21.2515   19.4647   28.1510 H         1 <0>         0.1150 
     58 H19        20.9132   21.6692   31.0629 H         1 <0>         0.0650 
     59 H20        21.2397   20.7612   33.3620 H         1 <0>         0.1550 
     60 H21        23.0176   23.9508   26.9940 H         1 <0>         0.1150 
     61 H22        22.6618   25.5837   22.3922 H         1 <0>         0.0600 
     62 H23        22.4480   23.8639   22.4256 H         1 <0>         0.0600 
     63 H24        20.0470   24.5079   23.4976 H         1 <0>         0.0600 
     64 H25        30.3530   13.4147   27.5233 H         1 <0>         0.4455 
     65 H26        28.7461   13.6570   28.1853 H         1 <0>         0.4455 
     66 H27        31.9509   14.9989   27.7449 H         1 <0>         0.4455 
     67 H28        31.5178   16.5986   28.3489 H         1 <0>         0.4455 
     68 H29        25.8424   18.8439   31.0625 H         1 <0>         0.3000 
     69 H30        21.7096   24.6485   25.6994 H         1 <0>         0.3000 
     70 H31        20.5539   24.0673   21.2557 H         1 <0>         0.4180 
@<TRIPOS>BOND
     1    1   28 1    
     2    1   40 1    
     3    1   41 1    
     4    1   42 1    
     5    2   28 1    
     6    2   43 1    
     7    2   44 1    
     8    2   45 1    
     9    3   28 1    
    10    3   46 1    
    11    3   47 1    
    12    3   48 1    
    13    4   39 1    
    14    4   49 1    
    15    4   50 1    
    16    4   51 1    
    17    5    7 ar   
    18    5   15 ar   
    19    5   52 1    
    20    6    8 ar   
    21    6   15 ar   
    22    6   53 1    
    23    7   16 ar   
    24    7   54 1    
    25    8   16 ar   
    26    8   55 1    
    27    9   10 ar   
    28    9   17 ar   
    29    9   56 1    
    30   10   18 ar   
    31   10   57 1    
    32   11   12 ar   
    33   11   19 ar   
    34   11   58 1    
    35   12   20 ar   
    36   12   59 1    
    37   13   17 ar   
    38   13   21 ar   
    39   13   60 1    
    40   14   23 1    
    41   14   34 1    
    42   14   61 1    
    43   14   62 1    
    44   15   24 1    
    45   16   32 1    
    46   17   25 1    
    47   18   19 1    
    48   18   21 ar   
    49   19   22 ar   
    50   20   31 ar   
    51   20   39 1    
    52   21   26 1    
    53   22   27 1    
    54   22   31 ar   
    55   23   28 1    
    56   23   33 1    
    57   23   63 1    
    58   24   29 1    
    59   24   30 2    
    60   25   33 am   BACKBONE|DICT|INTERRES
    61   25   36 2    
    62   26   35 1    
    63   26   37 2    
    64   27   32 am   BACKBONE|DICT|INTERRES
    65   27   38 2    
    66   29   64 1    
    67   29   65 1    
    68   30   66 1    
    69   30   67 1    
    70   32   68 1    
    71   33   69 1    
    72   34   70 1    
@<TRIPOS>SUBSTRUCTURE
     1 <0>         1 GROUP             0       ****    0 ROOT    
@<TRIPOS>MOLECULE
try1-ligand
70   72    1
SMALL
USER_CHARGES


@<TRIPOS>ATOM
      1 C1         20.1084   24.6540   22.3377 C.3       1 <0>        -0.1800 
      2 C2         21.6500   22.7250   21.7928 C.3       1 <0>        -0.1800 
      3 C3         22.1916   25.0590   21.1196 C.3       1 <0>        -0.1800 
      4 C4         24.4666   18.2148   34.4206 C.3       1 <0>         0.1100 
      5 C5         27.5820   16.1448   28.0135 C.ar      1 <0>        -0.0900 
      6 C6         29.1428   17.2433   29.5149 C.ar      1 <0>        -0.0900 
      7 C7         26.5461   16.9851   28.4797 C.ar      1 <0>        -0.1060 
      8 C8         28.1100   18.0685   29.9962 C.ar      1 <0>        -0.1060 
      9 C9         21.0669   21.0367   26.9714 C.ar      1 <0>        -0.1150 
     10 C10        21.4178   20.4398   28.1963 C.ar      1 <0>        -0.1150 
     11 C11        21.7087   20.8429   31.4933 C.ar      1 <0>         0.2270 
     12 C12        21.9394   20.3219   32.7755 C.ar      1 <0>        -0.4470 
     13 C13        22.4570   22.9497   27.5258 C.ar      1 <0>        -0.1150 
     14 C14        22.3255   25.7792   24.2642 C.3       1 <0>         0.1450 
     15 C15        28.8851   16.2436   28.5579 C.ar      1 <0>        -0.1190 
     16 C16        26.8007   17.9343   29.4979 C.ar      1 <0>         0.2170 
     17 C17        21.6031   22.2911   26.6223 C.ar      1 <0>        -0.1150 
     18 C18        22.2740   21.0949   29.1100 C.ar      1 <0>         0.0000 
     19 C19        22.5362   20.4612   30.4156 C.ar      1 <0>        -0.2920 
     20 C20        23.0206   19.4482   32.9552 C.ar      1 <0>         0.5716 
     21 C21        22.7853   22.3796   28.7722 C.ar      1 <0>        -0.1150 
     22 C22        23.6198   19.5758   30.6921 C.ar      1 <0>         0.3658 
     23 C23        22.3955   24.3903   23.5778 C.3       1 <0>         0.1400 
     24 C24        29.9452   15.2936   28.1853 C.2       1 <0>         0.8270 
     25 C25        21.2211   22.9832   25.3541 C.2       1 <0>         0.6150 
     26 C26        23.6491   23.1832   29.7071 C.2       1 <0>         0.7150 
     27 C27        24.6140   19.1279   29.6387 C.2       1 <0>         0.6192 
     28 C28        21.5792   24.2007   22.2463 C.3       1 <0>         0.0000 
     29 N1         29.6442   14.0207   27.9150 N.pl3     1 <0>        -0.8850 
     30 N2         31.2380   15.6430   28.1100 N.pl3     1 <0>        -0.8850 
     31 N3         23.8270   19.0732   31.9367 N.ar      1 <0>        -0.6780 
     32 N4         25.7730   18.6691   30.1420 N.am      1 <0>        -0.3850 
     33 N5         22.2721   23.3369   24.5949 N.am      1 <0>        -0.5000 
     34 O1         23.1655   26.7143   23.6208 O.3       1 <0>        -0.6830 
     35 O2         23.5961   24.4310   29.6431 O.co2     1 <0>        -0.8000 
     36 O3         20.0457   23.2476   25.1225 O.2       1 <0>        -0.5000 
     37 O4         24.4434   22.5917   30.4737 O.co2     1 <0>        -0.8000 
     38 O5         24.4012   19.2299   28.4303 O.2       1 <0>        -0.5000 
     39 O6         23.2780   18.9680   34.2202 O.3       1 <0>        -0.2866 
     40 H1         19.6439   24.6051   21.3591 H         1 <0>         0.0600 
     41 H2         20.0180   25.6904   22.6587 H         1 <0>         0.0600 
     42 H3         19.4925   24.0425   22.9842 H         1 <0>         0.0600 
     43 H4         22.6817   22.3740   21.7553 H         1 <0>         0.0600 
     44 H5         21.1034   22.0650   22.4659 H         1 <0>         0.0600 
     45 H6         21.2325   22.5884   20.7952 H         1 <0>         0.0600 
     46 H7         23.2430   24.8418   20.9761 H         1 <0>         0.0600 
     47 H8         21.6995   24.8760   20.1635 H         1 <0>         0.0600 
     48 H9         22.1007   26.1262   21.3201 H         1 <0>         0.0600 
     49 H10        24.5939   18.0431   35.4886 H         1 <0>         0.0300 
     50 H11        24.4124   17.2475   33.9183 H         1 <0>         0.0300 
     51 H12        25.3505   18.7511   34.0724 H         1 <0>         0.0300 
     52 H13        27.3561   15.4026   27.2614 H         1 <0>         0.1290 
     53 H14        30.1241   17.3405   29.9490 H         1 <0>         0.1290 
     54 H15        25.5472   16.8544   28.0909 H         1 <0>         0.1410 
     55 H16        28.3254   18.7807   30.7804 H         1 <0>         0.1410 
     56 H17        20.3795   20.5264   26.3154 H         1 <0>         0.1150 
     57 H18        20.9981   19.4776   28.4477 H         1 <0>         0.1150 
     58 H19        20.8984   21.5403   31.3357 H         1 <0>         0.0650 
     59 H20        21.3195   20.6105   33.6111 H         1 <0>         0.1550 
     60 H21        22.8411   23.9294   27.2772 H         1 <0>         0.1150 
     61 H22        21.3101   26.1632   24.3402 H         1 <0>         0.0600 
     62 H23        22.6892   25.7076   25.2899 H         1 <0>         0.0600 
     63 H24        23.4408   24.2588   23.2915 H         1 <0>         0.0600 
     64 H25        30.3528   13.4093   27.5191 H         1 <0>         0.4455 
     65 H26        28.7520   13.6430   28.2001 H         1 <0>         0.4455 
     66 H27        31.9458   14.9997   27.7252 H         1 <0>         0.4455 
     67 H28        31.5119   16.6004   28.3230 H         1 <0>         0.4455 
     68 H29        25.8642   18.8028   31.1401 H         1 <0>         0.3000 
     69 H30        23.1549   22.9714   24.9182 H         1 <0>         0.3000 
     70 H31        24.0366   26.3486   23.5781 H         1 <0>         0.4180 
@<TRIPOS>BOND
     1    1   28 1    
     2    1   40 1    
     3    1   41 1    
     4    1   42 1    
     5    2   28 1    
     6    2   43 1    
     7    2   44 1    
     8    2   45 1    
     9    3   28 1    
    10    3   46 1    
    11    3   47 1    
    12    3   48 1    
    13    4   39 1    
    14    4   49 1    
    15    4   50 1    
    16    4   51 1    
    17    5    7 ar   
    18    5   15 ar   
    19    5   52 1    
    20    6    8 ar   
    21    6   15 ar   
    22    6   53 1    
    23    7   16 ar   
    24    7   54 1    
    25    8   16 ar   
    26    8   55 1    
    27    9   10 ar   
    28    9   17 ar   
    29    9   56 1    
    30   10   18 ar   
    31   10   57 1    
    32   11   12 ar   
    33   11   19 ar   
    34   11   58 1    
    35   12   20 ar   
    36   12   59 1    
    37   13   17 ar   
    38   13   21 ar   
    39   13   60 1    
    40   14   23 1    
    41   14   34 1    
    42   14   61 1    
    43   14   62 1    
    44   15   24 1    
    45   16   32 1    
    46   17   25 1    
    47   18   19 1    
    48   18   21 ar   
    49   19   22 ar   
    50   20   31 ar   
    51   20   39 1    
    52   21   26 1    
    53   22   27 1    
    54   22   31 ar   
    55   23   28 1    
    56   23   33 1    
    57   23   63 1    
    58   24   29 1    
    59   24   30 2    
    60   25   33 am   BACKBONE|DICT|INTERRES
    61   25   36 2    
    62   26   35 1    
    63   26   37 2    
    64   27   32 am   BACKBONE|DICT|INTERRES
    65   27   38 2    
    66   29   64 1    
    67   29   65 1    
    68   30   66 1    
    69   30   67 1    
    70   32   68 1    
    71   33   69 1    
    72   34   70 1    
@<TRIPOS>SUBSTRUCTURE
     1 <0>         1 GROUP             0       ****    0 ROOT    
@<TRIPOS>MOLECULE
try1-ligand
70   72    1
SMALL
USER_CHARGES


@<TRIPOS>ATOM
      1 C1         33.0085   19.6237   37.3153 C.3       1 <0>        -0.1800 
      2 C2         30.8531   20.8559   37.5975 C.3       1 <0>        -0.1800 
      3 C3         31.9631   20.7398   35.3625 C.3       1 <0>        -0.1800 
      4 C4         21.3275   20.0178   27.9774 C.3       1 <0>         0.1100 
      5 C5         27.5764   15.4238   27.7584 C.ar      1 <0>        -0.0900 
      6 C6         28.9379   16.8458   29.1923 C.ar      1 <0>        -0.0900 
      7 C7         26.4275   16.1602   28.1193 C.ar      1 <0>        -0.1060 
      8 C8         27.7939   17.5714   29.5591 C.ar      1 <0>        -0.1060 
      9 C9         26.0411   19.3589   35.1738 C.ar      1 <0>        -0.1150 
     10 C10        25.0900   19.6853   34.1896 C.ar      1 <0>        -0.1150 
     11 C11        23.5304   21.4827   32.0183 C.ar      1 <0>         0.2270 
     12 C12        22.5209   21.6705   31.0568 C.ar      1 <0>        -0.4470 
     13 C13        27.8059   20.0786   33.6778 C.ar      1 <0>        -0.1150 
     14 C14        30.6655   17.5972   37.4221 C.3       1 <0>         0.1450 
     15 C15        28.8408   15.7575   28.2994 C.ar      1 <0>        -0.1190 
     16 C16        26.5298   17.2253   29.0364 C.ar      1 <0>         0.2170 
     17 C17        27.4148   19.5333   34.9190 C.ar      1 <0>        -0.1150 
     18 C18        25.4723   20.1788   32.9213 C.ar      1 <0>         0.0000 
     19 C19        24.3855   20.3668   31.9245 C.ar      1 <0>        -0.2920 
     20 C20        22.3925   20.7344   30.0163 C.ar      1 <0>         0.5716 
     21 C21        26.8665   20.3885   32.6653 C.ar      1 <0>        -0.1150 
     22 C22        24.1627   19.4670   30.8409 C.ar      1 <0>         0.3658 
     23 C23        30.8894   18.6173   36.2735 C.3       1 <0>         0.1400 
     24 C24        30.0565   15.0295   27.9152 C.2       1 <0>         0.8270 
     25 C25        28.4351   19.1907   35.9703 C.2       1 <0>         0.6150 
     26 C26        27.4115   20.8908   31.3466 C.2       1 <0>         0.7150 
     27 C27        25.0451   18.2647   30.6634 C.2       1 <0>         0.6192 
     28 C28        31.6542   19.9398   36.6462 C.3       1 <0>         0.0000 
     29 N1         31.2431   15.6429   27.9159 N.pl3     1 <0>        -0.8850 
     30 N2         30.0431   13.7489   27.5179 N.pl3     1 <0>        -0.8850 
     31 N3         23.1887   19.6452   29.9148 N.ar      1 <0>        -0.6780 
     32 N4         25.3862   17.9758   29.3977 N.am      1 <0>        -0.3850 
     33 N5         29.6584   18.8659   35.5103 N.am      1 <0>        -0.5000 
     34 O1         31.8343   16.8388   37.6570 O.3       1 <0>        -0.6830 
     35 O2         28.5900   21.3080   31.3014 O.co2     1 <0>        -0.8000 
     36 O3         28.1326   19.1941   37.1632 O.2       1 <0>        -0.5000 
     37 O4         26.7069   20.8430   30.3149 O.co2     1 <0>        -0.8000 
     38 O5         25.4618   17.6429   31.6374 O.2       1 <0>        -0.5000 
     39 O6         21.4072   20.9269   29.0698 O.3       1 <0>        -0.2866 
     40 H1         33.6030   20.5263   37.4610 H         1 <0>         0.0600 
     41 H2         33.6027   18.9377   36.7108 H         1 <0>         0.0600 
     42 H3         32.8779   19.1711   38.2985 H         1 <0>         0.0600 
     43 H4         29.9504   21.2456   37.1279 H         1 <0>         0.0600 
     44 H5         30.5569   20.3394   38.5101 H         1 <0>         0.0600 
     45 H6         31.4437   21.7218   37.8980 H         1 <0>         0.0600 
     46 H7         31.0593   21.0202   34.8208 H         1 <0>         0.0600 
     47 H8         32.4971   21.6633   35.5890 H         1 <0>         0.0600 
     48 H9         32.5933   20.1622   34.6877 H         1 <0>         0.0600 
     49 H10        20.5330   20.3331   27.3009 H         1 <0>         0.0300 
     50 H11        22.2576   19.9948   27.4077 H         1 <0>         0.0300 
     51 H12        21.0901   19.0088   28.3142 H         1 <0>         0.0300 
     52 H13        27.4710   14.6123   27.0561 H         1 <0>         0.1290 
     53 H14        29.8863   17.1364   29.6218 H         1 <0>         0.1290 
     54 H15        25.4685   15.8949   27.7010 H         1 <0>         0.1410 
     55 H16        27.8988   18.3960   30.2476 H         1 <0>         0.1410 
     56 H17        25.7081   18.9615   36.1219 H         1 <0>         0.1150 
     57 H18        24.0445   19.5143   34.4020 H         1 <0>         0.1150 
     58 H19        23.6542   22.1975   32.8190 H         1 <0>         0.0650 
     59 H20        21.8633   22.5254   31.1098 H         1 <0>         0.1550 
     60 H21        28.8553   20.2419   33.4800 H         1 <0>         0.1150 
     61 H22        30.3426   18.0790   38.3445 H         1 <0>         0.0600 
     62 H23        29.8851   16.8852   37.1498 H         1 <0>         0.0600 
     63 H24        31.5112   18.0978   35.5424 H         1 <0>         0.0600 
     64 H25        32.0815   15.1222   27.5916 H         1 <0>         0.4455 
     65 H26        31.3375   16.6072   28.2233 H         1 <0>         0.4455 
     66 H27        30.8901   13.3267   27.1212 H         1 <0>         0.4455 
     67 H28        29.2408   13.1640   27.6920 H         1 <0>         0.4455 
     68 H29        24.8973   18.4798   28.6740 H         1 <0>         0.3000 
     69 H30        29.7591   18.8314   34.5052 H         1 <0>         0.3000 
     70 H31        31.6427   16.1711   38.3063 H         1 <0>         0.4180 
@<TRIPOS>BOND
     1    1   28 1    
     2    1   40 1    
     3    1   41 1    
     4    1   42 1    
     5    2   28 1    
     6    2   43 1    
     7    2   44 1    
     8    2   45 1    
     9    3   28 1    
    10    3   46 1    
    11    3   47 1    
    12    3   48 1    
    13    4   39 1    
    14    4   49 1    
    15    4   50 1    
    16    4   51 1    
    17    5    7 ar   
    18    5   15 ar   
    19    5   52 1    
    20    6    8 ar   
    21    6   15 ar   
    22    6   53 1    
    23    7   16 ar   
    24    7   54 1    
    25    8   16 ar   
    26    8   55 1    
    27    9   10 ar   
    28    9   17 ar   
    29    9   56 1    
    30   10   18 ar   
    31   10   57 1    
    32   11   12 ar   
    33   11   19 ar   
    34   11   58 1    
    35   12   20 ar   
    36   12   59 1    
    37   13   17 ar   
    38   13   21 ar   
    39   13   60 1    
    40   14   23 1    
    41   14   34 1    
    42   14   61 1    
    43   14   62 1    
    44   15   24 1    
    45   16   32 1    
    46   17   25 1    
    47   18   19 1    
    48   18   21 ar   
    49   19   22 ar   
    50   20   31 ar   
    51   20   39 1    
    52   21   26 1    
    53   22   27 1    
    54   22   31 ar   
    55   23   28 1    
    56   23   33 1    
    57   23   63 1    
    58   24   29 1    
    59   24   30 2    
    60   25   33 am   BACKBONE|DICT|INTERRES
    61   25   36 2    
    62   26   35 1    
    63   26   37 2    
    64   27   32 am   BACKBONE|DICT|INTERRES
    65   27   38 2    
    66   29   64 1    
    67   29   65 1    
    68   30   66 1    
    69   30   67 1    
    70   32   68 1    
    71   33   69 1    
    72   34   70 1    
@<TRIPOS>SUBSTRUCTURE
     1 <0>         1 GROUP             0       ****    0 ROOT    
@<TRIPOS>MOLECULE
try1-ligand
70   72    1
SMALL
USER_CHARGES


@<TRIPOS>ATOM
      1 C1         22.1520   22.9834   22.6522 C.3       1 <0>        -0.1800 
      2 C2         22.1732   25.1366   21.4091 C.3       1 <0>        -0.1800 
      3 C3         20.5618   24.8009   23.3176 C.3       1 <0>        -0.1800 
      4 C4         21.3219   19.3153   35.1831 C.3       1 <0>         0.1100 
      5 C5         28.5737   17.5582   29.3309 C.ar      1 <0>        -0.0900 
      6 C6         26.9745   15.9452   28.4430 C.ar      1 <0>        -0.0900 
      7 C7         27.5113   18.3644   29.7862 C.ar      1 <0>        -0.1060 
      8 C8         25.9151   16.7516   28.8976 C.ar      1 <0>        -0.1060 
      9 C9         23.5375   24.1509   28.6522 C.ar      1 <0>        -0.1150 
     10 C10        23.2876   23.2850   29.7295 C.ar      1 <0>        -0.1150 
     11 C11        21.5505   21.2606   31.5380 C.ar      1 <0>         0.2270 
     12 C12        21.4358   20.5327   32.7354 C.ar      1 <0>        -0.4470 
     13 C13        22.8722   22.3920   27.1186 C.ar      1 <0>        -0.1150 
     14 C14        23.0897   26.6057   23.9693 C.3       1 <0>         0.1450 
     15 C15        28.3115   16.3459   28.6543 C.ar      1 <0>        -0.1190 
     16 C16        26.1712   17.9636   29.5706 C.ar      1 <0>         0.2170 
     17 C17        23.3601   23.6985   27.3330 C.ar      1 <0>        -0.1150 
     18 C18        22.8565   21.9549   29.5276 C.ar      1 <0>         0.0000 
     19 C19        22.7129   21.1333   30.7506 C.ar      1 <0>        -0.2920 
     20 C20        22.4950   19.6916   33.1176 C.ar      1 <0>         0.5716 
     21 C21        22.6256   21.5001   28.1901 C.ar      1 <0>        -0.1150 
     22 C22        23.7192   20.2373   31.2129 C.ar      1 <0>         0.3658 
     23 C23        23.0740   25.0633   23.8005 C.3       1 <0>         0.1400 
     24 C24        29.4131   15.5143   28.1680 C.2       1 <0>         0.8270 
     25 C25        23.6934   24.5936   26.1762 C.2       1 <0>         0.6150 
     26 C26        22.1847   20.0918   27.8461 C.2       1 <0>         0.7150 
     27 C27        24.9669   19.9900   30.4142 C.2       1 <0>         0.6192 
     28 C28        21.9930   24.5143   22.8113 C.3       1 <0>         0.0000 
     29 N1         30.6216   16.0427   27.9334 N.pl3     1 <0>        -0.8850 
     30 N2         29.2414   14.2047   27.9451 N.pl3     1 <0>        -0.8850 
     31 N3         23.6162   19.5512   32.3736 N.ar      1 <0>        -0.6780 
     32 N4         25.0423   18.7412   29.9281 N.am      1 <0>        -0.3850 
     33 N5         22.8885   24.4508   25.1133 N.am      1 <0>        -0.5000 
     34 O1         23.3849   27.2244   22.7353 O.3       1 <0>        -0.6830 
     35 O2         22.4475   19.6434   26.7080 O.co2     1 <0>        -0.8000 
     36 O3         24.6799   25.3293   26.1932 O.2       1 <0>        -0.5000 
     37 O4         21.6444   19.3730   28.7140 O.co2     1 <0>        -0.8000 
     38 O5         25.8448   20.8482   30.3122 O.2       1 <0>        -0.5000 
     39 O6         22.3859   18.9851   34.2974 O.3       1 <0>        -0.2866 
     40 H1         21.4754   22.5894   21.8937 H         1 <0>         0.0600 
     41 H2         21.9382   22.4456   23.5767 H         1 <0>         0.0600 
     42 H3         23.1662   22.7210   22.3485 H         1 <0>         0.0600 
     43 H4         21.9744   26.2072   21.3949 H         1 <0>         0.0600 
     44 H5         23.1876   24.9874   21.0372 H         1 <0>         0.0600 
     45 H6         21.4934   24.6858   20.6853 H         1 <0>         0.0600 
     46 H7         20.3781   25.8695   23.4300 H         1 <0>         0.0600 
     47 H8         19.8146   24.4208   22.6208 H         1 <0>         0.0600 
     48 H9         20.3700   24.3334   24.2842 H         1 <0>         0.0600 
     49 H10        21.3738   18.6759   36.0641 H         1 <0>         0.0300 
     50 H11        21.3912   20.3504   35.5206 H         1 <0>         0.0300 
     51 H12        20.3494   19.1560   34.7149 H         1 <0>         0.0300 
     52 H13        29.5888   17.8913   29.4926 H         1 <0>         0.1290 
     53 H14        26.7450   15.0224   27.9295 H         1 <0>         0.1290 
     54 H15        27.7489   19.2964   30.2757 H         1 <0>         0.1410 
     55 H16        24.8953   16.4416   28.7121 H         1 <0>         0.1410 
     56 H17        23.8920   25.1532   28.8456 H         1 <0>         0.1150 
     57 H18        23.4565   23.6433   30.7349 H         1 <0>         0.1150 
     58 H19        20.7550   21.9234   31.2306 H         1 <0>         0.0650 
     59 H20        20.5531   20.6212   33.3506 H         1 <0>         0.1550 
     60 H21        22.7105   22.0561   26.1044 H         1 <0>         0.1150 
     61 H22        22.1272   26.9966   24.2919 H         1 <0>         0.0600 
     62 H23        23.8112   26.9245   24.7232 H         1 <0>         0.0600 
     63 H24        24.0420   24.7414   23.4087 H         1 <0>         0.0600 
     64 H25        31.3841   15.4780   27.5904 H         1 <0>         0.4455 
     65 H26        30.7707   17.0273   28.1077 H         1 <0>         0.4455 
     66 H27        29.9982   13.6267   27.6115 H         1 <0>         0.4455 
     67 H28        28.3296   13.7944   28.0925 H         1 <0>         0.4455 
     68 H29        24.1461   18.3540   29.6507 H         1 <0>         0.3000 
     69 H30        22.0992   23.8309   25.2177 H         1 <0>         0.3000 
     70 H31        24.0379   26.7022   22.2901 H         1 <0>         0.4180 
@<TRIPOS>BOND
     1    1   28 1    
     2    1   40 1    
     3    1   41 1    
     4    1   42 1    
     5    2   28 1    
     6    2   43 1    
     7    2   44 1    
     8    2   45 1    
     9    3   28 1    
    10    3   46 1    
    11    3   47 1    
    12    3   48 1    
    13    4   39 1    
    14    4   49 1    
    15    4   50 1    
    16    4   51 1    
    17    5    7 ar   
    18    5   15 ar   
    19    5   52 1    
    20    6    8 ar   
    21    6   15 ar   
    22    6   53 1    
    23    7   16 ar   
    24    7   54 1    
    25    8   16 ar   
    26    8   55 1    
    27    9   10 ar   
    28    9   17 ar   
    29    9   56 1    
    30   10   18 ar   
    31   10   57 1    
    32   11   12 ar   
    33   11   19 ar   
    34   11   58 1    
    35   12   20 ar   
    36   12   59 1    
    37   13   17 ar   
    38   13   21 ar   
    39   13   60 1    
    40   14   23 1    
    41   14   34 1    
    42   14   61 1    
    43   14   62 1    
    44   15   24 1    
    45   16   32 1    
    46   17   25 1    
    47   18   19 1    
    48   18   21 ar   
    49   19   22 ar   
    50   20   31 ar   
    51   20   39 1    
    52   21   26 1    
    53   22   27 1    
    54   22   31 ar   
    55   23   28 1    
    56   23   33 1    
    57   23   63 1    
    58   24   29 1    
    59   24   30 2    
    60   25   33 am   BACKBONE|DICT|INTERRES
    61   25   36 2    
    62   26   35 1    
    63   26   37 2    
    64   27   32 am   BACKBONE|DICT|INTERRES
    65   27   38 2    
    66   29   64 1    
    67   29   65 1    
    68   30   66 1    
    69   30   67 1    
    70   32   68 1    
    71   33   69 1    
    72   34   70 1    
@<TRIPOS>SUBSTRUCTURE
     1 <0>         1 GROUP             0       ****    0 ROOT    
@<TRIPOS>MOLECULE
try1-ligand
70   72    1
SMALL
USER_CHARGES


@<TRIPOS>ATOM
      1 C1         22.2268   23.0287   22.7114 C.3       1 <0>        -0.1800 
      2 C2         22.2070   25.1955   21.4922 C.3       1 <0>        -0.1800 
      3 C3         20.5549   24.7815   23.3498 C.3       1 <0>        -0.1800 
      4 C4         21.3026   19.2046   35.2095 C.3       1 <0>         0.1100 
      5 C5         28.5371   17.4731   29.4028 C.ar      1 <0>        -0.0900 
      6 C6         26.9679   15.8743   28.4390 C.ar      1 <0>        -0.0900 
      7 C7         27.4599   18.2503   29.8735 C.ar      1 <0>        -0.1060 
      8 C8         25.8936   16.6517   28.9092 C.ar      1 <0>        -0.1060 
      9 C9         23.4601   24.1332   28.7466 C.ar      1 <0>        -0.1150 
     10 C10        23.2108   23.2461   29.8067 C.ar      1 <0>        -0.1150 
     11 C11        21.5146   21.2103   31.5953 C.ar      1 <0>         0.2270 
     12 C12        21.3999   20.4604   32.7791 C.ar      1 <0>        -0.4470 
     13 C13        22.8465   22.3876   27.1766 C.ar      1 <0>        -0.1150 
     14 C14        22.9756   26.6624   24.1173 C.3       1 <0>         0.1450 
     15 C15        28.2974   16.2827   28.6806 C.ar      1 <0>        -0.1190 
     16 C16        26.1273   17.8419   29.6276 C.ar      1 <0>         0.2170 
     17 C17        23.3085   23.6988   27.4181 C.ar      1 <0>        -0.1150 
     18 C18        22.8058   21.9121   29.5780 C.ar      1 <0>         0.0000 
     19 C19        22.6601   21.0688   30.7858 C.ar      1 <0>        -0.2920 
     20 C20        22.4419   19.5834   33.1257 C.ar      1 <0>         0.5716 
     21 C21        22.6010   21.4747   28.2305 C.ar      1 <0>        -0.1150 
     22 C22        23.6492   20.1366   31.2123 C.ar      1 <0>         0.3658 
     23 C23        23.0415   25.1264   23.9076 C.3       1 <0>         0.1400 
     24 C24        29.4145   15.4817   28.1784 C.2       1 <0>         0.8270 
     25 C25        23.6417   24.6179   26.2802 C.2       1 <0>         0.6150 
     26 C26        22.1896   20.0647   27.8584 C.2       1 <0>         0.7150 
     27 C27        24.8765   19.8732   30.3877 C.2       1 <0>         0.6192 
     28 C28        22.0092   24.5512   22.8819 C.3       1 <0>         0.0000 
     29 N1         29.2769   14.1660   27.9676 N.pl3     1 <0>        -0.8850 
     30 N2         30.6022   16.0432   27.9169 N.pl3     1 <0>        -0.8850 
     31 N3         23.5467   19.4290   32.3601 N.ar      1 <0>        -0.6780 
     32 N4         24.9850   18.5932   29.9988 N.am      1 <0>        -0.3850 
     33 N5         22.8617   24.4696   25.1996 N.am      1 <0>        -0.5000 
     34 O1         23.4097   27.3289   22.9511 O.3       1 <0>        -0.6830 
     35 O2         22.4556   19.6469   26.7095 O.co2     1 <0>        -0.8000 
     36 O3         24.6088   25.3777   26.3267 O.2       1 <0>        -0.5000 
     37 O4         21.6705   19.3154   28.7134 O.co2     1 <0>        -0.8000 
     38 O5         25.7146   20.7528   30.1843 O.2       1 <0>        -0.5000 
     39 O6         22.3331   18.8552   34.2922 O.3       1 <0>        -0.2866 
     40 H1         21.5865   22.6200   21.9297 H         1 <0>         0.0600 
     41 H2         22.0060   22.4732   23.6237 H         1 <0>         0.0600 
     42 H3         23.2579   22.8057   22.4343 H         1 <0>         0.0600 
     43 H4         21.9708   26.2586   21.4834 H         1 <0>         0.0600 
     44 H5         23.2362   25.0863   21.1481 H         1 <0>         0.0600 
     45 H6         21.5645   24.7295   20.7443 H         1 <0>         0.0600 
     46 H7         20.3303   25.8416   23.4681 H         1 <0>         0.0600 
     47 H8         19.8418   24.3834   22.6278 H         1 <0>         0.0600 
     48 H9         20.3524   24.2965   24.3055 H         1 <0>         0.0600 
     49 H10        21.3503   18.5441   36.0750 H         1 <0>         0.0300 
     50 H11        21.4184   20.2287   35.5676 H         1 <0>         0.0300 
     51 H12        20.3145   19.0921   34.7610 H         1 <0>         0.0300 
     52 H13        29.5462   17.8120   29.5884 H         1 <0>         0.1290 
     53 H14        26.7554   14.9678   27.8905 H         1 <0>         0.1290 
     54 H15        27.6806   19.1669   30.3985 H         1 <0>         0.1410 
     55 H16        24.8798   16.3366   28.7005 H         1 <0>         0.1410 
     56 H17        23.7944   25.1383   28.9605 H         1 <0>         0.1150 
     57 H18        23.3597   23.5913   30.8198 H         1 <0>         0.1150 
     58 H19        20.7323   21.9006   31.3152 H         1 <0>         0.0650 
     59 H20        20.5300   20.5594   33.4108 H         1 <0>         0.1550 
     60 H21        22.7044   22.0652   26.1551 H         1 <0>         0.1150 
     61 H22        21.9644   27.0099   24.3173 H         1 <0>         0.0600 
     62 H23        23.5770   26.9822   24.9698 H         1 <0>         0.0600 
     63 H24        24.0320   24.8644   23.5277 H         1 <0>         0.0600 
     64 H25        30.0444   13.6051   27.6292 H         1 <0>         0.4455 
     65 H26        28.3834   13.7290   28.1491 H         1 <0>         0.4455 
     66 H27        31.3750   15.4957   27.5688 H         1 <0>         0.4455 
     67 H28        30.7313   17.0298   28.0942 H         1 <0>         0.4455 
     68 H29        24.0942   18.1429   29.8156 H         1 <0>         0.3000 
     69 H30        22.0993   23.8128   25.2730 H         1 <0>         0.3000 
     70 H31        23.2956   28.2601   23.0815 H         1 <0>         0.4180 
@<TRIPOS>BOND
     1    1   28 1    
     2    1   40 1    
     3    1   41 1    
     4    1   42 1    
     5    2   28 1    
     6    2   43 1    
     7    2   44 1    
     8    2   45 1    
     9    3   28 1    
    10    3   46 1    
    11    3   47 1    
    12    3   48 1    
    13    4   39 1    
    14    4   49 1    
    15    4   50 1    
    16    4   51 1    
    17    5    7 ar   
    18    5   15 ar   
    19    5   52 1    
    20    6    8 ar   
    21    6   15 ar   
    22    6   53 1    
    23    7   16 ar   
    24    7   54 1    
    25    8   16 ar   
    26    8   55 1    
    27    9   10 ar   
    28    9   17 ar   
    29    9   56 1    
    30   10   18 ar   
    31   10   57 1    
    32   11   12 ar   
    33   11   19 ar   
    34   11   58 1    
    35   12   20 ar   
    36   12   59 1    
    37   13   17 ar   
    38   13   21 ar   
    39   13   60 1    
    40   14   23 1    
    41   14   34 1    
    42   14   61 1    
    43   14   62 1    
    44   15   24 1    
    45   16   32 1    
    46   17   25 1    
    47   18   19 1    
    48   18   21 ar   
    49   19   22 ar   
    50   20   31 ar   
    51   20   39 1    
    52   21   26 1    
    53   22   27 1    
    54   22   31 ar   
    55   23   28 1    
    56   23   33 1    
    57   23   63 1    
    58   24   29 1    
    59   24   30 2    
    60   25   33 am   BACKBONE|DICT|INTERRES
    61   25   36 2    
    62   26   35 1    
    63   26   37 2    
    64   27   32 am   BACKBONE|DICT|INTERRES
    65   27   38 2    
    66   29   64 1    
    67   29   65 1    
    68   30   66 1    
    69   30   67 1    
    70   32   68 1    
    71   33   69 1    
    72   34   70 1    
@<TRIPOS>SUBSTRUCTURE
     1 <0>         1 GROUP             0       ****    0 ROOT    
@<TRIPOS>MOLECULE
try1-ligand
70   72    1
SMALL
USER_CHARGES


@<TRIPOS>ATOM
      1 C1         22.2168   23.0281   22.7055 C.3       1 <0>        -0.1800 
      2 C2         22.1928   25.1919   21.4810 C.3       1 <0>        -0.1800 
      3 C3         20.5640   24.7923   23.3622 C.3       1 <0>        -0.1800 
      4 C4         21.4767   19.1383   35.1781 C.3       1 <0>         0.1100 
      5 C5         26.9622   15.7359   28.5110 C.ar      1 <0>        -0.0900 
      6 C6         28.4244   17.6537   28.8736 C.ar      1 <0>        -0.0900 
      7 C7         25.8461   16.5147   28.8764 C.ar      1 <0>        -0.1060 
      8 C8         27.3091   18.4297   29.2388 C.ar      1 <0>        -0.1060 
      9 C9         23.5493   24.1457   28.7261 C.ar      1 <0>        -0.1150 
     10 C10        23.3232   23.2556   29.7887 C.ar      1 <0>        -0.1150 
     11 C11        21.6639   21.2103   31.6047 C.ar      1 <0>         0.2270 
     12 C12        21.5746   20.4571   32.7886 C.ar      1 <0>        -0.4470 
     13 C13        22.9025   22.4045   27.1647 C.ar      1 <0>        -0.1150 
     14 C14        22.9971   26.6591   24.1018 C.3       1 <0>         0.1450 
     15 C15        28.2577   16.2998   28.5103 C.ar      1 <0>        -0.1190 
     16 C16        26.0148   17.8710   29.2440 C.ar      1 <0>         0.2170 
     17 C17        23.3692   23.7151   27.3999 C.ar      1 <0>        -0.1150 
     18 C18        22.9137   21.9221   29.5650 C.ar      1 <0>         0.0000 
     19 C19        22.7943   21.0753   30.7733 C.ar      1 <0>        -0.2920 
     20 C20        22.6266   19.5834   33.1132 C.ar      1 <0>         0.5716 
     21 C21        22.6800   21.4885   28.2210 C.ar      1 <0>        -0.1150 
     22 C22        23.7950   20.1460   31.1785 C.ar      1 <0>         0.3658 
     23 C23        23.0600   25.1241   23.8849 C.3       1 <0>         0.1400 
     24 C24        29.4198   15.4889   28.1451 C.2       1 <0>         0.8270 
     25 C25        23.6775   24.6375   26.2577 C.2       1 <0>         0.6150 
     26 C26        22.2610   20.0794   27.8538 C.2       1 <0>         0.7150 
     27 C27        25.0074   19.8894   30.3300 C.2       1 <0>         0.6192 
     28 C28        22.0104   24.5523   22.8750 C.3       1 <0>         0.0000 
     29 N1         30.6343   16.0419   28.0271 N.pl3     1 <0>        -0.8850 
     30 N2         29.2991   14.1740   27.9197 N.pl3     1 <0>        -0.8850 
     31 N3         23.7171   19.4352   32.3263 N.ar      1 <0>        -0.6780 
     32 N4         24.9644   18.7087   29.6933 N.am      1 <0>        -0.3850 
     33 N5         22.9030   24.4620   25.1772 N.am      1 <0>        -0.5000 
     34 O1         23.4036   27.3306   22.9285 O.3       1 <0>        -0.6830 
     35 O2         21.6464   19.3970   28.7036 O.co2     1 <0>        -0.8000 
     36 O3         24.6228   25.4245   26.3012 O.2       1 <0>        -0.5000 
     37 O4         22.4566   19.6468   26.6978 O.co2     1 <0>        -0.8000 
     38 O5         25.9586   20.6720   30.3157 O.2       1 <0>        -0.5000 
     39 O6         22.5428   18.8519   34.2797 O.3       1 <0>        -0.2866 
     40 H1         21.5633   22.6212   21.9337 H         1 <0>         0.0600 
     41 H2         22.0052   22.4762   23.6221 H         1 <0>         0.0600 
     42 H3         23.2426   22.7983   22.4148 H         1 <0>         0.0600 
     43 H4         21.9628   26.2563   21.4727 H         1 <0>         0.0600 
     44 H5         23.2165   25.0758   21.1231 H         1 <0>         0.0600 
     45 H6         21.5374   24.7278   20.7432 H         1 <0>         0.0600 
     46 H7         20.3473   25.8541   23.4808 H         1 <0>         0.0600 
     47 H8         19.8387   24.3967   22.6511 H         1 <0>         0.0600 
     48 H9         20.3719   24.3109   24.3218 H         1 <0>         0.0600 
     49 H10        21.5502   18.4836   36.0462 H         1 <0>         0.0300 
     50 H11        21.5224   20.1682   35.5351 H         1 <0>         0.0300 
     51 H12        20.5055   18.9638   34.7128 H         1 <0>         0.0300 
     52 H13        26.8121   14.6984   28.2490 H         1 <0>         0.1290 
     53 H14        29.4035   18.1111   28.8809 H         1 <0>         0.1290 
     54 H15        24.8753   16.0435   28.8907 H         1 <0>         0.1410 
     55 H16        27.4538   19.4606   29.5332 H         1 <0>         0.1410 
     56 H17        23.8879   25.1503   28.9355 H         1 <0>         0.1150 
     57 H18        23.4938   23.5979   30.7993 H         1 <0>         0.1150 
     58 H19        20.8737   21.8981   31.3414 H         1 <0>         0.0650 
     59 H20        20.7166   20.5511   33.4370 H         1 <0>         0.1550 
     60 H21        22.7384   22.0850   26.1456 H         1 <0>         0.1150 
     61 H22        21.9903   27.0046   24.3260 H         1 <0>         0.0600 
     62 H23        23.6173   26.9765   24.9416 H         1 <0>         0.0600 
     63 H24        24.0439   24.8641   23.4868 H         1 <0>         0.0600 
     64 H25        31.4392   15.4914   27.7679 H         1 <0>         0.4455 
     65 H26        30.7443   17.0310   28.2053 H         1 <0>         0.4455 
     66 H27        30.0976   13.6102   27.6693 H         1 <0>         0.4455 
     67 H28        28.3860   13.7449   27.9793 H         1 <0>         0.4455 
     68 H29        24.0380   18.4509   29.3688 H         1 <0>         0.3000 
     69 H30        22.1636   23.7794   25.2509 H         1 <0>         0.3000 
     70 H31        22.8379   27.0582   22.2194 H         1 <0>         0.4180 
@<TRIPOS>BOND
     1    1   28 1    
     2    1   40 1    
     3    1   41 1    
     4    1   42 1    
     5    2   28 1    
     6    2   43 1    
     7    2   44 1    
     8    2   45 1    
     9    3   28 1    
    10    3   46 1    
    11    3   47 1    
    12    3   48 1    
    13    4   39 1    
    14    4   49 1    
    15    4   50 1    
    16    4   51 1    
    17    5    7 ar   
    18    5   15 ar   
    19    5   52 1    
    20    6    8 ar   
    21    6   15 ar   
    22    6   53 1    
    23    7   16 ar   
    24    7   54 1    
    25    8   16 ar   
    26    8   55 1    
    27    9   10 ar   
    28    9   17 ar   
    29    9   56 1    
    30   10   18 ar   
    31   10   57 1    
    32   11   12 ar   
    33   11   19 ar   
    34   11   58 1    
    35   12   20 ar   
    36   12   59 1    
    37   13   17 ar   
    38   13   21 ar   
    39   13   60 1    
    40   14   23 1    
    41   14   34 1    
    42   14   61 1    
    43   14   62 1    
    44   15   24 1    
    45   16   32 1    
    46   17   25 1    
    47   18   19 1    
    48   18   21 ar   
    49   19   22 ar   
    50   20   31 ar   
    51   20   39 1    
    52   21   26 1    
    53   22   27 1    
    54   22   31 ar   
    55   23   28 1    
    56   23   33 1    
    57   23   63 1    
    58   24   29 1    
    59   24   30 2    
    60   25   33 am   BACKBONE|DICT|INTERRES
    61   25   36 2    
    62   26   35 1    
    63   26   37 2    
    64   27   32 am   BACKBONE|DICT|INTERRES
    65   27   38 2    
    66   29   64 1    
    67   29   65 1    
    68   30   66 1    
    69   30   67 1    
    70   32   68 1    
    71   33   69 1    
    72   34   70 1    
@<TRIPOS>SUBSTRUCTURE
     1 <0>         1 GROUP             0       ****    0 ROOT    
@<TRIPOS>MOLECULE
try1-ligand
70   72    1
SMALL
USER_CHARGES


@<TRIPOS>ATOM
      1 C1         31.4593   18.0151   37.8813 C.3       1 <0>        -0.1800 
      2 C2         29.9302   19.9903   37.6972 C.3       1 <0>        -0.1800 
      3 C3         30.9637   18.9899   35.6469 C.3       1 <0>        -0.1800 
      4 C4         21.3700   20.0397   27.1327 C.3       1 <0>         0.1100 
      5 C5         27.5866   15.3324   27.6988 C.ar      1 <0>        -0.0900 
      6 C6         28.8838   16.8058   29.1372 C.ar      1 <0>        -0.0900 
      7 C7         26.4437   16.1322   27.9181 C.ar      1 <0>        -0.1060 
      8 C8         27.7440   17.5942   29.3650 C.ar      1 <0>        -0.1060 
      9 C9         24.8722   19.2566   34.9209 C.ar      1 <0>        -0.1150 
     10 C10        24.1524   19.6124   33.7677 C.ar      1 <0>        -0.1150 
     11 C11        23.0625   21.4251   31.4289 C.ar      1 <0>         0.2270 
     12 C12        22.2218   21.6618   30.3285 C.ar      1 <0>        -0.4470 
     13 C13        26.9355   19.8382   33.7830 C.ar      1 <0>        -0.1150 
     14 C14        28.4930   17.1016   38.1285 C.3       1 <0>         0.1450 
     15 C15        28.8210   15.6592   28.3097 C.ar      1 <0>        -0.1190 
     16 C16        26.5160   17.2568   28.7638 C.ar      1 <0>         0.2170 
     17 C17        26.2752   19.3411   34.9252 C.ar      1 <0>        -0.1150 
     18 C18        24.8011   20.0687   32.5973 C.ar      1 <0>         0.0000 
     19 C19        23.9264   20.3120   31.4236 C.ar      1 <0>        -0.2920 
     20 C20        22.2609   20.7706   29.2442 C.ar      1 <0>         0.5716 
     21 C21        26.2275   20.2095   32.6136 C.ar      1 <0>        -0.1150 
     22 C22        23.9025   19.4707   30.2723 C.ar      1 <0>         0.3658 
     23 C23        29.1442   17.6795   36.8388 C.3       1 <0>         0.1400 
     24 C24        30.0433   14.8744   28.0543 C.2       1 <0>         0.8270 
     25 C25        27.0502   18.9380   36.1427 C.2       1 <0>         0.6150 
     26 C26        27.0362   20.7124   31.4354 C.2       1 <0>         0.7150 
     27 C27        24.8158   18.2772   30.1774 C.2       1 <0>         0.6192 
     28 C28        30.3492   18.6639   37.0280 C.3       1 <0>         0.0000 
     29 N1         30.0426   13.6444   27.5152 N.pl3     1 <0>        -0.8850 
     30 N2         31.2431   15.3939   28.3149 N.pl3     1 <0>        -0.8850 
     31 N3         23.0774   19.6905   29.2172 N.ar      1 <0>        -0.6780 
     32 N4         25.3831   18.0754   28.9777 N.am      1 <0>        -0.3850 
     33 N5         28.1495   18.2045   35.8925 N.am      1 <0>        -0.5000 
     34 O1         29.2418   16.0454   38.6954 O.3       1 <0>        -0.6830 
     35 O2         26.5005   20.8625   30.3151 O.co2     1 <0>        -0.8000 
     36 O3         26.6553   19.2415   37.2678 O.2       1 <0>        -0.5000 
     37 O4         28.2560   20.9398   31.5943 O.co2     1 <0>        -0.8000 
     38 O5         25.0514   17.5816   31.1616 O.2       1 <0>        -0.5000 
     39 O6         21.4243   21.0058   28.1737 O.3       1 <0>        -0.2866 
     40 H1         32.3463   18.6479   37.9314 H         1 <0>         0.0600 
     41 H2         31.7676   17.0519   37.4727 H         1 <0>         0.0600 
     42 H3         31.1350   17.8498   38.9095 H         1 <0>         0.0600 
     43 H4         29.2131   20.5443   37.0920 H         1 <0>         0.0600 
     44 H5         29.4801   19.8280   38.6753 H         1 <0>         0.0600 
     45 H6         30.7897   20.6438   37.8447 H         1 <0>         0.0600 
     46 H7         30.2726   19.5407   35.0072 H         1 <0>         0.0600 
     47 H8         31.8620   19.6005   35.7426 H         1 <0>         0.0600 
     48 H9         31.2427   18.0788   35.1171 H         1 <0>         0.0600 
     49 H10        20.6901   20.3816   26.3531 H         1 <0>         0.0300 
     50 H11        22.3463   19.8807   26.6736 H         1 <0>         0.0300 
     51 H12        20.9891   19.0918   27.5125 H         1 <0>         0.0300 
     52 H13        27.4980   14.4770   27.0486 H         1 <0>         0.1290 
     53 H14        29.8031   17.1033   29.6213 H         1 <0>         0.1290 
     54 H15        25.5117   15.8796   27.4361 H         1 <0>         0.1410 
     55 H16        27.8245   18.4636   30.0006 H         1 <0>         0.1410 
     56 H17        24.3449   18.8944   35.7922 H         1 <0>         0.1150 
     57 H18        23.0779   19.5035   33.7735 H         1 <0>         0.1150 
     58 H19        23.0467   22.0970   32.2743 H         1 <0>         0.0650 
     59 H20        21.5568   22.5121   30.3172 H         1 <0>         0.1550 
     60 H21        28.0125   19.9314   33.8026 H         1 <0>         0.1150 
     61 H22        28.3265   17.8728   38.8808 H         1 <0>         0.0600 
     62 H23        27.5173   16.6750   37.8970 H         1 <0>         0.0600 
     63 H24        29.5428   16.8208   36.3024 H         1 <0>         0.0600 
     64 H25        30.9134   13.2343   27.1556 H         1 <0>         0.4455 
     65 H26        29.2108   13.0759   27.5164 H         1 <0>         0.4455 
     66 H27        32.0847   14.9153   27.9519 H         1 <0>         0.4455 
     67 H28        31.3332   16.3422   28.6602 H         1 <0>         0.4455 
     68 H29        25.0779   18.6778   28.2288 H         1 <0>         0.3000 
     69 H30        28.3437   18.0302   34.9177 H         1 <0>         0.3000 
     70 H31        29.3582   15.3583   38.0539 H         1 <0>         0.4180 
@<TRIPOS>BOND
     1    1   28 1    
     2    1   40 1    
     3    1   41 1    
     4    1   42 1    
     5    2   28 1    
     6    2   43 1    
     7    2   44 1    
     8    2   45 1    
     9    3   28 1    
    10    3   46 1    
    11    3   47 1    
    12    3   48 1    
    13    4   39 1    
    14    4   49 1    
    15    4   50 1    
    16    4   51 1    
    17    5    7 ar   
    18    5   15 ar   
    19    5   52 1    
    20    6    8 ar   
    21    6   15 ar   
    22    6   53 1    
    23    7   16 ar   
    24    7   54 1    
    25    8   16 ar   
    26    8   55 1    
    27    9   10 ar   
    28    9   17 ar   
    29    9   56 1    
    30   10   18 ar   
    31   10   57 1    
    32   11   12 ar   
    33   11   19 ar   
    34   11   58 1    
    35   12   20 ar   
    36   12   59 1    
    37   13   17 ar   
    38   13   21 ar   
    39   13   60 1    
    40   14   23 1    
    41   14   34 1    
    42   14   61 1    
    43   14   62 1    
    44   15   24 1    
    45   16   32 1    
    46   17   25 1    
    47   18   19 1    
    48   18   21 ar   
    49   19   22 ar   
    50   20   31 ar   
    51   20   39 1    
    52   21   26 1    
    53   22   27 1    
    54   22   31 ar   
    55   23   28 1    
    56   23   33 1    
    57   23   63 1    
    58   24   29 1    
    59   24   30 2    
    60   25   33 am   BACKBONE|DICT|INTERRES
    61   25   36 2    
    62   26   35 1    
    63   26   37 2    
    64   27   32 am   BACKBONE|DICT|INTERRES
    65   27   38 2    
    66   29   64 1    
    67   29   65 1    
    68   30   66 1    
    69   30   67 1    
    70   32   68 1    
    71   33   69 1    
    72   34   70 1    
@<TRIPOS>SUBSTRUCTURE
     1 <0>         1 GROUP             0       ****    0 ROOT    
@<TRIPOS>MOLECULE
try1-ligand
70   72    1
SMALL
USER_CHARGES


@<TRIPOS>ATOM
      1 C1         21.7617   24.4683   21.0273 C.3       1 <0>        -0.1800 
      2 C2         20.1554   24.5094   22.9504 C.3       1 <0>        -0.1800 
      3 C3         21.7313   22.5827   22.6437 C.3       1 <0>        -0.1800 
      4 C4         23.5550   18.9969   34.9072 C.3       1 <0>         0.1100 
      5 C5         27.1876   16.0875   28.2745 C.ar      1 <0>        -0.0900 
      6 C6         28.7328   17.5471   29.4580 C.ar      1 <0>        -0.0900 
      7 C7         26.1047   16.8769   28.7149 C.ar      1 <0>        -0.1060 
      8 C8         27.6490   18.3463   29.8837 C.ar      1 <0>        -0.1060 
      9 C9         23.6245   24.1844   28.2438 C.ar      1 <0>        -0.1150 
     10 C10        23.4806   23.3764   29.3873 C.ar      1 <0>        -0.1150 
     11 C11        21.7160   21.5483   31.3126 C.ar      1 <0>         0.2270 
     12 C12        21.5210   20.9199   32.5529 C.ar      1 <0>        -0.4470 
     13 C13        22.8431   22.3422   26.8741 C.ar      1 <0>        -0.1150 
     14 C14        22.6503   26.3922   23.3590 C.3       1 <0>         0.1450 
     15 C15        28.5135   16.4063   28.6513 C.ar      1 <0>        -0.1190 
     16 C16        26.3202   18.0182   29.5153 C.ar      1 <0>         0.2170 
     17 C17        23.2928   23.6729   26.9755 C.ar      1 <0>        -0.1150 
     18 C18        23.0543   22.0313   29.2956 C.ar      1 <0>         0.0000 
     19 C19        22.8881   21.2985   30.5686 C.ar      1 <0>        -0.2920 
     20 C20        22.5198   20.0567   33.0275 C.ar      1 <0>         0.5716 
     21 C21        22.7565   21.4982   28.0055 C.ar      1 <0>        -0.1150 
     22 C22        23.8073   20.3512   31.1043 C.ar      1 <0>         0.3658 
     23 C23        22.6631   24.8365   23.4054 C.3       1 <0>         0.1400 
     24 C24        29.6324   15.5521   28.2112 C.2       1 <0>         0.8270 
     25 C25        23.5200   24.4853   25.7364 C.2       1 <0>         0.6150 
     26 C26        22.3778   20.0587   27.7636 C.2       1 <0>         0.7150 
     27 C27        25.1044   20.0022   30.4314 C.2       1 <0>         0.6192 
     28 C28        21.5854   24.1185   22.5196 C.3       1 <0>         0.0000 
     29 N1         30.8429   16.0428   27.9180 N.pl3     1 <0>        -0.8850 
     30 N2         29.4765   14.2306   28.0609 N.pl3     1 <0>        -0.8850 
     31 N3         23.6239   19.7590   32.3069 N.ar      1 <0>        -0.6780 
     32 N4         25.1779   18.7346   29.9802 N.am      1 <0>        -0.3850 
     33 N5         22.5796   24.3561   24.7866 N.am      1 <0>        -0.5000 
     34 O1         23.2431   26.8763   22.1741 O.3       1 <0>        -0.6830 
     35 O2         22.4431   19.6429   26.5861 O.co2     1 <0>        -0.8000 
     36 O3         24.5105   25.2065   25.6295 O.2       1 <0>        -0.5000 
     37 O4         22.0430   19.3189   28.7149 O.co2     1 <0>        -0.8000 
     38 O5         25.9977   20.8427   30.3150 O.2       1 <0>        -0.5000 
     39 O6         22.3863   19.5238   34.2903 O.3       1 <0>        -0.2866 
     40 H1         21.1063   23.8669   20.3961 H         1 <0>         0.0600 
     41 H2         22.7855   24.2943   20.6936 H         1 <0>         0.0600 
     42 H3         21.5145   25.5093   20.8203 H         1 <0>         0.0600 
     43 H4         19.9417   24.2220   23.9808 H         1 <0>         0.0600 
     44 H5         19.9909   25.5816   22.8612 H         1 <0>         0.0600 
     45 H6         19.4050   24.0433   22.3151 H         1 <0>         0.0600 
     46 H7         21.5044   22.2209   23.6473 H         1 <0>         0.0600 
     47 H8         21.0524   22.0623   21.9662 H         1 <0>         0.0600 
     48 H9         22.7440   22.2604   22.3990 H         1 <0>         0.0600 
     49 H10        23.3580   18.8427   35.9675 H         1 <0>         0.0300 
     50 H11        23.8426   18.0431   34.4632 H         1 <0>         0.0300 
     51 H12        24.3971   19.6879   34.8398 H         1 <0>         0.0300 
     52 H13        26.9828   15.2280   27.6530 H         1 <0>         0.1290 
     53 H14        29.7296   17.8102   29.7787 H         1 <0>         0.1290 
     54 H15        25.1004   16.5922   28.4393 H         1 <0>         0.1410 
     55 H16        27.8557   19.1926   30.5215 H         1 <0>         0.1410 
     56 H17        23.9861   25.1978   28.3452 H         1 <0>         0.1150 
     57 H18        23.7143   23.7964   30.3550 H         1 <0>         0.1150 
     58 H19        20.9756   22.2418   30.9404 H         1 <0>         0.0650 
     59 H20        20.6460   21.1321   33.1476 H         1 <0>         0.1550 
     60 H21        22.6263   21.9405   25.8944 H         1 <0>         0.1150 
     61 H22        21.6542   26.8127   23.4753 H         1 <0>         0.0600 
     62 H23        23.2404   26.8164   24.1699 H         1 <0>         0.0600 
     63 H24        23.6427   24.5086   23.0500 H         1 <0>         0.0600 
     64 H25        31.5585   15.4395   27.5168 H         1 <0>         0.4455 
     65 H26        31.0995   16.9950   28.1846 H         1 <0>         0.4455 
     66 H27        30.2306   13.6720   27.6761 H         1 <0>         0.4455 
     67 H28        28.6607   13.7754   28.4443 H         1 <0>         0.4455 
     68 H29        24.3048   18.2246   30.0009 H         1 <0>         0.3000 
     69 H30        21.7935   23.7613   25.0033 H         1 <0>         0.3000 
     70 H31        24.0374   26.3835   22.0230 H         1 <0>         0.4180 
@<TRIPOS>BOND
     1    1   28 1    
     2    1   40 1    
     3    1   41 1    
     4    1   42 1    
     5    2   28 1    
     6    2   43 1    
     7    2   44 1    
     8    2   45 1    
     9    3   28 1    
    10    3   46 1    
    11    3   47 1    
    12    3   48 1    
    13    4   39 1    
    14    4   49 1    
    15    4   50 1    
    16    4   51 1    
    17    5    7 ar   
    18    5   15 ar   
    19    5   52 1    
    20    6    8 ar   
    21    6   15 ar   
    22    6   53 1    
    23    7   16 ar   
    24    7   54 1    
    25    8   16 ar   
    26    8   55 1    
    27    9   10 ar   
    28    9   17 ar   
    29    9   56 1    
    30   10   18 ar   
    31   10   57 1    
    32   11   12 ar   
    33   11   19 ar   
    34   11   58 1    
    35   12   20 ar   
    36   12   59 1    
    37   13   17 ar   
    38   13   21 ar   
    39   13   60 1    
    40   14   23 1    
    41   14   34 1    
    42   14   61 1    
    43   14   62 1    
    44   15   24 1    
    45   16   32 1    
    46   17   25 1    
    47   18   19 1    
    48   18   21 ar   
    49   19   22 ar   
    50   20   31 ar   
    51   20   39 1    
    52   21   26 1    
    53   22   27 1    
    54   22   31 ar   
    55   23   28 1    
    56   23   33 1    
    57   23   63 1    
    58   24   29 1    
    59   24   30 2    
    60   25   33 am   BACKBONE|DICT|INTERRES
    61   25   36 2    
    62   26   35 1    
    63   26   37 2    
    64   27   32 am   BACKBONE|DICT|INTERRES
    65   27   38 2    
    66   29   64 1    
    67   29   65 1    
    68   30   66 1    
    69   30   67 1    
    70   32   68 1    
    71   33   69 1    
    72   34   70 1    
@<TRIPOS>SUBSTRUCTURE
     1 <0>         1 GROUP             0       ****    0 ROOT    
@<TRIPOS>MOLECULE
try1-ligand
70   72    1
SMALL
USER_CHARGES


@<TRIPOS>ATOM
      1 C1         22.0968   25.1075   20.8593 C.3       1 <0>        -0.1800 
      2 C2         20.4337   24.7788   22.6781 C.3       1 <0>        -0.1800 
      3 C3         22.0651   22.9415   22.1173 C.3       1 <0>        -0.1800 
      4 C4         22.5441   18.8546   34.6108 C.3       1 <0>         0.1100 
      5 C5         28.0829   17.9183   29.4012 C.ar      1 <0>        -0.0900 
      6 C6         26.5204   16.1748   28.7181 C.ar      1 <0>        -0.0900 
      7 C7         27.0108   18.6901   29.8921 C.ar      1 <0>        -0.1060 
      8 C8         25.4512   16.9469   29.2081 C.ar      1 <0>        -0.1060 
      9 C9         23.0696   24.3750   28.1332 C.ar      1 <0>        -0.1150 
     10 C10        22.7335   23.5987   29.2545 C.ar      1 <0>        -0.1150 
     11 C11        20.9366   21.7587   31.1115 C.ar      1 <0>         0.2270 
     12 C12        20.7220   21.1352   32.3533 C.ar      1 <0>        -0.4470 
     13 C13        22.6584   22.4520   26.7116 C.ar      1 <0>        -0.1150 
     14 C14        22.8391   26.6221   23.4274 C.3       1 <0>         0.1450 
     15 C15        27.8437   16.6580   28.8090 C.ar      1 <0>        -0.1190 
     16 C16        25.6841   18.2063   29.7971 C.ar      1 <0>         0.2170 
     17 C17        23.0640   23.7961   26.8521 C.ar      1 <0>        -0.1150 
     18 C18        22.3840   22.2352   29.1348 C.ar      1 <0>         0.0000 
     19 C19        22.1348   21.5216   30.4076 C.ar      1 <0>        -0.2920 
     20 C20        21.7191   20.2860   32.8632 C.ar      1 <0>         0.5716 
     21 C21        22.3273   21.6494   27.8299 C.ar      1 <0>        -0.1150 
     22 C22        23.0723   20.6264   30.9983 C.ar      1 <0>         0.3658 
     23 C23        22.9007   25.0790   23.2775 C.3       1 <0>         0.1400 
     24 C24        28.9541   15.8614   28.2857 C.2       1 <0>         0.8270 
     25 C25        23.4907   24.5987   25.6586 C.2       1 <0>         0.6150 
     26 C26        21.9876   20.1947   27.5762 C.2       1 <0>         0.7150 
     27 C27        24.3509   20.2655   30.2977 C.2       1 <0>         0.6192 
     28 C28        21.8863   24.4700   22.2535 C.3       1 <0>         0.0000 
     29 N1         28.8476   14.5318   28.1613 N.pl3     1 <0>        -0.8850 
     30 N2         30.1044   16.4407   27.9178 N.pl3     1 <0>        -0.8850 
     31 N3         22.8732   20.0411   32.2010 N.ar      1 <0>        -0.6780 
     32 N4         24.5405   18.9406   30.1970 N.am      1 <0>        -0.3850 
     33 N5         22.6910   24.4727   24.5896 N.am      1 <0>        -0.5000 
     34 O1         24.0719   27.1107   23.9115 O.3       1 <0>        -0.6830 
     35 O2         22.4422   19.6442   26.5487 O.co2     1 <0>        -0.8000 
     36 O3         24.5379   25.2454   25.6571 O.2       1 <0>        -0.5000 
     37 O4         21.3357   19.5451   28.4217 O.co2     1 <0>        -0.8000 
     38 O5         25.1547   21.1290   29.9432 O.2       1 <0>        -0.5000 
     39 O6         21.5120   19.6823   34.0860 O.3       1 <0>        -0.2866 
     40 H1         21.3391   24.7737   20.1503 H         1 <0>         0.0600 
     41 H2         23.0662   24.8536   20.4289 H         1 <0>         0.0600 
     42 H3         22.0360   26.1954   20.9092 H         1 <0>         0.0600 
     43 H4         20.1510   24.2810   23.6046 H         1 <0>         0.0600 
     44 H5         20.2826   25.8492   22.8228 H         1 <0>         0.0600 
     45 H6         19.7212   24.4508   21.9206 H         1 <0>         0.0600 
     46 H7         21.9070   22.4289   23.0663 H         1 <0>         0.0600 
     47 H8         21.3515   22.5238   21.4069 H         1 <0>         0.0600 
     48 H9         23.0633   22.6775   21.7661 H         1 <0>         0.0600 
     49 H10        22.2298   18.4518   35.5734 H         1 <0>         0.0300 
     50 H11        22.7526   18.0111   33.9509 H         1 <0>         0.0300 
     51 H12        23.4641   19.4184   34.7720 H         1 <0>         0.0300 
     52 H13        29.0860   18.3141   29.4699 H         1 <0>         0.1290 
     53 H14        26.3086   15.2140   28.2711 H         1 <0>         0.1290 
     54 H15        27.2284   19.6591   30.3141 H         1 <0>         0.1410 
     55 H16        24.4404   16.5726   29.1148 H         1 <0>         0.1410 
     56 H17        23.3578   25.4078   28.2674 H         1 <0>         0.1150 
     57 H18        22.7708   24.0551   30.2332 H         1 <0>         0.1150 
     58 H19        20.1902   22.4258   30.7059 H         1 <0>         0.0650 
     59 H20        19.8107   21.3085   32.9056 H         1 <0>         0.1550 
     60 H21        22.6284   22.0175   25.7227 H         1 <0>         0.1150 
     61 H22        22.6557   27.1231   22.4794 H         1 <0>         0.0600 
     62 H23        22.0325   26.9339   24.0927 H         1 <0>         0.0600 
     63 H24        23.8973   24.7979   22.9283 H         1 <0>         0.0600 
     64 H25        29.6112   13.9743   27.8090 H         1 <0>         0.4455 
     65 H26        27.9817   14.0805   28.4237 H         1 <0>         0.4455 
     66 H27        30.8724   15.8961   27.5547 H         1 <0>         0.4455 
     67 H28        30.2114   17.4396   28.0286 H         1 <0>         0.4455 
     68 H29        23.6897   18.3957   30.2931 H         1 <0>         0.3000 
     69 H30        21.8870   23.8712   24.6887 H         1 <0>         0.3000 
     70 H31        24.2703   26.6639   24.7228 H         1 <0>         0.4180 
@<TRIPOS>BOND
     1    1   28 1    
     2    1   40 1    
     3    1   41 1    
     4    1   42 1    
     5    2   28 1    
     6    2   43 1    
     7    2   44 1    
     8    2   45 1    
     9    3   28 1    
    10    3   46 1    
    11    3   47 1    
    12    3   48 1    
    13    4   39 1    
    14    4   49 1    
    15    4   50 1    
    16    4   51 1    
    17    5    7 ar   
    18    5   15 ar   
    19    5   52 1    
    20    6    8 ar   
    21    6   15 ar   
    22    6   53 1    
    23    7   16 ar   
    24    7   54 1    
    25    8   16 ar   
    26    8   55 1    
    27    9   10 ar   
    28    9   17 ar   
    29    9   56 1    
    30   10   18 ar   
    31   10   57 1    
    32   11   12 ar   
    33   11   19 ar   
    34   11   58 1    
    35   12   20 ar   
    36   12   59 1    
    37   13   17 ar   
    38   13   21 ar   
    39   13   60 1    
    40   14   23 1    
    41   14   34 1    
    42   14   61 1    
    43   14   62 1    
    44   15   24 1    
    45   16   32 1    
    46   17   25 1    
    47   18   19 1    
    48   18   21 ar   
    49   19   22 ar   
    50   20   31 ar   
    51   20   39 1    
    52   21   26 1    
    53   22   27 1    
    54   22   31 ar   
    55   23   28 1    
    56   23   33 1    
    57   23   63 1    
    58   24   29 1    
    59   24   30 2    
    60   25   33 am   BACKBONE|DICT|INTERRES
    61   25   36 2    
    62   26   35 1    
    63   26   37 2    
    64   27   32 am   BACKBONE|DICT|INTERRES
    65   27   38 2    
    66   29   64 1    
    67   29   65 1    
    68   30   66 1    
    69   30   67 1    
    70   32   68 1    
    71   33   69 1    
    72   34   70 1    
@<TRIPOS>SUBSTRUCTURE
     1 <0>         1 GROUP             0       ****    0 ROOT    
@<TRIPOS>MOLECULE
try1-ligand
70   72    1
SMALL
USER_CHARGES


@<TRIPOS>ATOM
      1 C1         22.3584   24.8421   21.4504 C.3       1 <0>        -0.1800 
      2 C2         20.8572   23.5323   22.9597 C.3       1 <0>        -0.1800 
      3 C3         23.3099   23.1978   23.0860 C.3       1 <0>        -0.1800 
      4 C4         23.2306   16.9365   33.4653 C.3       1 <0>         0.1100 
      5 C5         27.6165   16.1898   27.9671 C.ar      1 <0>        -0.0900 
      6 C6         29.1688   17.2428   29.5149 C.ar      1 <0>        -0.0900 
      7 C7         26.5943   17.0563   28.4084 C.ar      1 <0>        -0.1060 
      8 C8         28.1481   18.0955   29.9694 C.ar      1 <0>        -0.1060 
      9 C9         23.6431   24.0832   28.5910 C.ar      1 <0>        -0.1150 
     10 C10        23.5483   23.0760   29.5725 C.ar      1 <0>        -0.1150 
     11 C11        22.0262   21.1432   31.4999 C.ar      1 <0>         0.2270 
     12 C12        21.9459   20.2840   32.6129 C.ar      1 <0>        -0.4470 
     13 C13        22.5653   22.6007   27.0119 C.ar      1 <0>        -0.1150 
     14 C14        21.2560   26.4962   23.8622 C.3       1 <0>         0.1450 
     15 C15        28.9054   16.2581   28.5442 C.ar      1 <0>        -0.1190 
     16 C16        26.8516   17.9995   29.4324 C.ar      1 <0>         0.2170 
     17 C17        23.1465   23.8506   27.2952 C.ar      1 <0>        -0.1150 
     18 C18        22.9570   21.8189   29.3011 C.ar      1 <0>         0.0000 
     19 C19        22.8989   20.8523   30.4267 C.ar      1 <0>        -0.2920 
     20 C20        22.7379   19.1248   32.6206 C.ar      1 <0>         0.5716 
     21 C21        22.4398   21.5941   27.9881 C.ar      1 <0>        -0.1150 
     22 C22        23.6859   19.6689   30.5512 C.ar      1 <0>         0.3658 
     23 C23        22.3441   25.4009   23.9434 C.3       1 <0>         0.1400 
     24 C24        29.9524   15.2983   28.1788 C.2       1 <0>         0.8270 
     25 C25        23.2750   24.8773   26.2087 C.2       1 <0>         0.6150 
     26 C26        21.7481   20.3305   27.5541 C.2       1 <0>         0.7150 
     27 C27        24.6745   19.1998   29.5187 C.2       1 <0>         0.6192 
     28 C28        22.2105   24.2656   22.8743 C.3       1 <0>         0.0000 
     29 N1         31.2431   15.6429   28.1011 N.pl3     1 <0>        -0.8850 
     30 N2         29.6432   14.0272   27.9149 N.pl3     1 <0>        -0.8850 
     31 N3         23.5958   18.8435   31.6189 N.ar      1 <0>        -0.6780 
     32 N4         25.8348   18.7734   30.0434 N.am      1 <0>        -0.3850 
     33 N5         22.3146   24.8053   25.2747 N.am      1 <0>        -0.5000 
     34 O1         21.5781   27.5780   24.7135 O.3       1 <0>        -0.6830 
     35 O2         21.1351   19.6421   28.3960 O.co2     1 <0>        -0.8000 
     36 O3         24.1960   25.6933   26.1931 O.2       1 <0>        -0.5000 
     37 O4         21.8159   20.0153   26.3427 O.co2     1 <0>        -0.8000 
     38 O5         24.4454   19.2428   28.3150 O.2       1 <0>        -0.5000 
     39 O6         22.6078   18.2088   33.6453 O.3       1 <0>        -0.2866 
     40 H1         22.4416   24.0509   20.7039 H         1 <0>         0.0600 
     41 H2         23.2428   25.4694   21.3606 H         1 <0>         0.0600 
     42 H3         21.5008   25.4494   21.1633 H         1 <0>         0.0600 
     43 H4         20.6821   23.0983   23.9442 H         1 <0>         0.0600 
     44 H5         20.0161   24.1855   22.7267 H         1 <0>         0.0600 
     45 H6         20.8418   22.7117   22.2413 H         1 <0>         0.0600 
     46 H7         23.1790   22.6406   24.0127 H         1 <0>         0.0600 
     47 H8         23.2983   22.4558   22.2870 H         1 <0>         0.0600 
     48 H9         24.3038   23.6430   23.1166 H         1 <0>         0.0600 
     49 H10        23.0314   16.2664   34.3005 H         1 <0>         0.0300 
     50 H11        22.8432   16.4435   32.5737 H         1 <0>         0.0300 
     51 H12        24.3124   17.0373   33.3755 H         1 <0>         0.0300 
     52 H13        27.3916   15.4588   27.2039 H         1 <0>         0.1290 
     53 H14        30.1435   17.3105   29.9709 H         1 <0>         0.1290 
     54 H15        25.6044   16.9535   27.9891 H         1 <0>         0.1410 
     55 H16        28.3643   18.8006   30.7601 H         1 <0>         0.1410 
     56 H17        24.1055   25.0288   28.8351 H         1 <0>         0.1150 
     57 H18        23.9387   23.2780   30.5592 H         1 <0>         0.1150 
     58 H19        21.4113   22.0308   31.4694 H         1 <0>         0.0650 
     59 H20        21.2669   20.4928   33.4253 H         1 <0>         0.1550 
     60 H21        22.1858   22.3967   26.0221 H         1 <0>         0.1150 
     61 H22        21.1749   26.8963   22.8527 H         1 <0>         0.0600 
     62 H23        20.2727   26.1105   24.1329 H         1 <0>         0.0600 
     63 H24        23.3139   25.8781   23.7829 H         1 <0>         0.0600 
     64 H25        31.9501   14.9980   27.7164 H         1 <0>         0.4455 
     65 H26        31.5191   16.5990   28.3159 H         1 <0>         0.4455 
     66 H27        30.3479   13.4083   27.5249 H         1 <0>         0.4455 
     67 H28        28.7437   13.6619   28.1931 H         1 <0>         0.4455 
     68 H29        25.9233   18.9220   31.0385 H         1 <0>         0.3000 
     69 H30        21.5773   24.1380   25.4414 H         1 <0>         0.3000 
     70 H31        22.4823   27.8186   24.5700 H         1 <0>         0.4180 
@<TRIPOS>BOND
     1    1   28 1    
     2    1   40 1    
     3    1   41 1    
     4    1   42 1    
     5    2   28 1    
     6    2   43 1    
     7    2   44 1    
     8    2   45 1    
     9    3   28 1    
    10    3   46 1    
    11    3   47 1    
    12    3   48 1    
    13    4   39 1    
    14    4   49 1    
    15    4   50 1    
    16    4   51 1    
    17    5    7 ar   
    18    5   15 ar   
    19    5   52 1    
    20    6    8 ar   
    21    6   15 ar   
    22    6   53 1    
    23    7   16 ar   
    24    7   54 1    
    25    8   16 ar   
    26    8   55 1    
    27    9   10 ar   
    28    9   17 ar   
    29    9   56 1    
    30   10   18 ar   
    31   10   57 1    
    32   11   12 ar   
    33   11   19 ar   
    34   11   58 1    
    35   12   20 ar   
    36   12   59 1    
    37   13   17 ar   
    38   13   21 ar   
    39   13   60 1    
    40   14   23 1    
    41   14   34 1    
    42   14   61 1    
    43   14   62 1    
    44   15   24 1    
    45   16   32 1    
    46   17   25 1    
    47   18   19 1    
    48   18   21 ar   
    49   19   22 ar   
    50   20   31 ar   
    51   20   39 1    
    52   21   26 1    
    53   22   27 1    
    54   22   31 ar   
    55   23   28 1    
    56   23   33 1    
    57   23   63 1    
    58   24   29 1    
    59   24   30 2    
    60   25   33 am   BACKBONE|DICT|INTERRES
    61   25   36 2    
    62   26   35 1    
    63   26   37 2    
    64   27   32 am   BACKBONE|DICT|INTERRES
    65   27   38 2    
    66   29   64 1    
    67   29   65 1    
    68   30   66 1    
    69   30   67 1    
    70   32   68 1    
    71   33   69 1    
    72   34   70 1    
@<TRIPOS>SUBSTRUCTURE
     1 <0>         1 GROUP             0       ****    0 ROOT    
@<TRIPOS>MOLECULE
try1-ligand
70   72    1
SMALL
USER_CHARGES


@<TRIPOS>ATOM
      1 C1         21.8238   24.9204   21.2019 C.3       1 <0>        -0.1800 
      2 C2         20.2309   24.4439   23.0758 C.3       1 <0>        -0.1800 
      3 C3         22.0751   22.8364   22.5470 C.3       1 <0>        -0.1800 
      4 C4         23.7659   18.8432   34.9110 C.3       1 <0>         0.1100 
      5 C5         28.7164   17.5485   29.5150 C.ar      1 <0>        -0.0900 
      6 C6         27.1883   16.0919   28.3018 C.ar      1 <0>        -0.0900 
      7 C7         27.6277   18.3505   29.9182 C.ar      1 <0>        -0.1060 
      8 C8         26.1011   16.8877   28.7159 C.ar      1 <0>        -0.1060 
      9 C9         23.4306   24.2711   28.4564 C.ar      1 <0>        -0.1150 
     10 C10        23.3016   23.4266   29.5740 C.ar      1 <0>        -0.1150 
     11 C11        21.7274   21.4899   31.4881 C.ar      1 <0>         0.2270 
     12 C12        21.5923   20.8289   32.7214 C.ar      1 <0>        -0.4470 
     13 C13        22.8502   22.4134   27.0108 C.ar      1 <0>        -0.1150 
     14 C14        22.5174   26.6221   23.6580 C.3       1 <0>         0.1450 
     15 C15        28.5048   16.4079   28.7095 C.ar      1 <0>        -0.1190 
     16 C16        26.3069   18.0267   29.5222 C.ar      1 <0>         0.2170 
     17 C17        23.2018   23.7703   27.1620 C.ar      1 <0>        -0.1150 
     18 C18        22.9889   22.0551   29.4346 C.ar      1 <0>         0.0000 
     19 C19        22.8682   21.2723   30.6864 C.ar      1 <0>        -0.2920 
     20 C20        22.6195   19.9654   33.1308 C.ar      1 <0>         0.5716 
     21 C21        22.7798   21.5390   28.1208 C.ar      1 <0>        -0.1150 
     22 C22        23.8149   20.3202   31.1614 C.ar      1 <0>         0.3658 
     23 C23        22.6648   25.0710   23.6175 C.3       1 <0>         0.1400 
     24 C24        29.6276   15.5515   28.2988 C.2       1 <0>         0.8270 
     25 C25        23.4332   24.6392   25.9616 C.2       1 <0>         0.6150 
     26 C26        22.5256   20.0834   27.8383 C.2       1 <0>         0.7150 
     27 C27        25.0921   19.9997   30.4416 C.2       1 <0>         0.6192 
     28 C28        21.7035   24.3359   22.6251 C.3       1 <0>         0.0000 
     29 N1         30.8431   16.0428   28.0361 N.pl3     1 <0>        -0.8850 
     30 N2         29.4752   14.2298   28.1452 N.pl3     1 <0>        -0.8850 
     31 N3         23.6890   19.6952   32.3523 N.ar      1 <0>        -0.6780 
     32 N4         25.1621   18.7388   29.9761 N.am      1 <0>        -0.3850 
     33 N5         22.5563   24.4848   24.9566 N.am      1 <0>        -0.5000 
     34 O1         23.3851   27.2431   22.7270 O.3       1 <0>        -0.6830 
     35 O2         22.8431   19.6429   26.7149 O.co2     1 <0>        -0.8000 
     36 O3         24.3674   25.4396   25.9383 O.2       1 <0>        -0.5000 
     37 O4         22.0423   19.3417   28.7157 O.co2     1 <0>        -0.8000 
     38 O5         25.9749   20.8486   30.3150 O.2       1 <0>        -0.5000 
     39 O6         22.5626   19.4005   34.3875 O.3       1 <0>        -0.2866 
     40 H1         21.2219   24.3543   20.4897 H         1 <0>         0.0600 
     41 H2         22.8521   24.8942   20.8429 H         1 <0>         0.0600 
     42 H3         21.4763   25.9518   21.1529 H         1 <0>         0.0600 
     43 H4         20.0420   23.9031   24.0032 H         1 <0>         0.0600 
     44 H5         19.9321   25.4766   23.2338 H         1 <0>         0.0600 
     45 H6         19.5583   24.0429   22.3181 H         1 <0>         0.0600 
     46 H7         21.9435   22.3253   23.5022 H         1 <0>         0.0600 
     47 H8         21.4525   22.3121   21.8206 H         1 <0>         0.0600 
     48 H9         23.1135   22.6977   22.2443 H         1 <0>         0.0600 
     49 H10        23.6418   18.6291   35.9720 H         1 <0>         0.0300 
     50 H11        24.0253   17.9127   34.4029 H         1 <0>         0.0300 
     51 H12        24.6024   19.5384   34.8247 H         1 <0>         0.0300 
     52 H13        29.7079   17.8072   29.8575 H         1 <0>         0.1290 
     53 H14        26.9946   15.2310   27.6784 H         1 <0>         0.1290 
     54 H15        27.8266   19.1957   30.5603 H         1 <0>         0.1410 
     55 H16        25.1018   16.6089   28.4212 H         1 <0>         0.1410 
     56 H17        23.7108   25.3050   28.5983 H         1 <0>         0.1150 
     57 H18        23.4678   23.8371   30.5598 H         1 <0>         0.1150 
     58 H19        20.9662   22.1863   31.1717 H         1 <0>         0.0650 
     59 H20        20.7428   21.0177   33.3597 H         1 <0>         0.1550 
     60 H21        22.7081   22.0155   26.0149 H         1 <0>         0.1150 
     61 H22        21.4973   26.9516   23.4635 H         1 <0>         0.0600 
     62 H23        22.7743   27.0275   24.6381 H         1 <0>         0.0600 
     63 H24        23.6832   24.8504   23.2997 H         1 <0>         0.0600 
     64 H25        31.5663   15.4422   27.6467 H         1 <0>         0.4455 
     65 H26        31.0975   16.9986   28.3023 H         1 <0>         0.4455 
     66 H27        30.2333   13.6725   27.7669 H         1 <0>         0.4455 
     67 H28        28.6544   13.7737   28.5178 H         1 <0>         0.4455 
     68 H29        24.2925   18.2232   30.0015 H         1 <0>         0.3000 
     69 H30        21.8063   23.8256   25.0981 H         1 <0>         0.3000 
     70 H31        23.2021   26.8972   21.8658 H         1 <0>         0.4180 
@<TRIPOS>BOND
     1    1   28 1    
     2    1   40 1    
     3    1   41 1    
     4    1   42 1    
     5    2   28 1    
     6    2   43 1    
     7    2   44 1    
     8    2   45 1    
     9    3   28 1    
    10    3   46 1    
    11    3   47 1    
    12    3   48 1    
    13    4   39 1    
    14    4   49 1    
    15    4   50 1    
    16    4   51 1    
    17    5    7 ar   
    18    5   15 ar   
    19    5   52 1    
    20    6    8 ar   
    21    6   15 ar   
    22    6   53 1    
    23    7   16 ar   
    24    7   54 1    
    25    8   16 ar   
    26    8   55 1    
    27    9   10 ar   
    28    9   17 ar   
    29    9   56 1    
    30   10   18 ar   
    31   10   57 1    
    32   11   12 ar   
    33   11   19 ar   
    34   11   58 1    
    35   12   20 ar   
    36   12   59 1    
    37   13   17 ar   
    38   13   21 ar   
    39   13   60 1    
    40   14   23 1    
    41   14   34 1    
    42   14   61 1    
    43   14   62 1    
    44   15   24 1    
    45   16   32 1    
    46   17   25 1    
    47   18   19 1    
    48   18   21 ar   
    49   19   22 ar   
    50   20   31 ar   
    51   20   39 1    
    52   21   26 1    
    53   22   27 1    
    54   22   31 ar   
    55   23   28 1    
    56   23   33 1    
    57   23   63 1    
    58   24   29 1    
    59   24   30 2    
    60   25   33 am   BACKBONE|DICT|INTERRES
    61   25   36 2    
    62   26   35 1    
    63   26   37 2    
    64   27   32 am   BACKBONE|DICT|INTERRES
    65   27   38 2    
    66   29   64 1    
    67   29   65 1    
    68   30   66 1    
    69   30   67 1    
    70   32   68 1    
    71   33   69 1    
    72   34   70 1    
@<TRIPOS>SUBSTRUCTURE
     1 <0>         1 GROUP             0       ****    0 ROOT    
@<TRIPOS>MOLECULE
try1-ligand
70   72    1
SMALL
USER_CHARGES


@<TRIPOS>ATOM
      1 C1         21.9524   25.0252   20.7933 C.3       1 <0>        -0.1800 
      2 C2         20.3273   24.7130   22.6490 C.3       1 <0>        -0.1800 
      3 C3         21.9242   22.8578   22.0490 C.3       1 <0>        -0.1800 
      4 C4         22.6327   18.8463   34.5629 C.3       1 <0>         0.1100 
      5 C5         28.0733   17.9685   29.2715 C.ar      1 <0>        -0.0900 
      6 C6         26.5339   16.1605   28.7157 C.ar      1 <0>        -0.0900 
      7 C7         26.9938   18.7502   29.7293 C.ar      1 <0>        -0.1060 
      8 C8         25.4572   16.9425   29.1726 C.ar      1 <0>        -0.1060 
      9 C9         23.0273   24.3709   28.0838 C.ar      1 <0>        -0.1150 
     10 C10        22.7163   23.5939   29.2118 C.ar      1 <0>        -0.1150 
     11 C11        20.9354   21.7397   31.0971 C.ar      1 <0>         0.2270 
     12 C12        20.7497   21.1141   32.3425 C.ar      1 <0>        -0.4470 
     13 C13        22.5441   22.4606   26.6676 C.ar      1 <0>        -0.1150 
     14 C14        22.7760   26.5281   23.3393 C.3       1 <0>         0.1450 
     15 C15        27.8493   16.6708   28.7596 C.ar      1 <0>        -0.1190 
     16 C16        25.6749   18.2390   29.6815 C.ar      1 <0>         0.2170 
     17 C17        22.9727   23.7983   26.8010 C.ar      1 <0>        -0.1150 
     18 C18        22.3441   22.2360   29.0974 C.ar      1 <0>         0.0000 
     19 C19        22.1257   21.5198   30.3745 C.ar      1 <0>        -0.2920 
     20 C20        21.7672   20.2802   32.8370 C.ar      1 <0>         0.5716 
     21 C21        22.2376   21.6573   27.7925 C.ar      1 <0>        -0.1150 
     22 C22        23.0855   20.6390   30.9507 C.ar      1 <0>         0.3658 
     23 C23        22.8106   24.9838   23.1926 C.3       1 <0>         0.1400 
     24 C24        28.9672   15.8629   28.2703 C.2       1 <0>         0.8270 
     25 C25        23.3723   24.6006   25.5980 C.2       1 <0>         0.6150 
     26 C26        21.8697   20.2087   27.5434 C.2       1 <0>         0.7150 
     27 C27        24.3580   20.2965   30.2301 C.2       1 <0>         0.6192 
     28 C28        21.7662   24.3881   22.1911 C.3       1 <0>         0.0000 
     29 N1         28.8553   14.5330   28.1544 N.pl3     1 <0>        -0.8850 
     30 N2         30.1299   16.4321   27.9262 N.pl3     1 <0>        -0.8850 
     31 N3         22.9142   20.0518   32.1567 N.ar      1 <0>        -0.6780 
     32 N4         24.5234   18.9765   30.0516 N.am      1 <0>        -0.3850 
     33 N5         22.6184   24.3841   24.5103 N.am      1 <0>        -0.5000 
     34 O1         23.1871   27.1378   22.1344 O.3       1 <0>        -0.6830 
     35 O2         21.1607   19.6174   28.3879 O.co2     1 <0>        -0.8000 
     36 O3         24.3654   25.3276   25.6083 O.2       1 <0>        -0.5000 
     37 O4         22.2025   19.6506   26.4759 O.co2     1 <0>        -0.8000 
     38 O5         25.1780   21.1643   29.9270 O.2       1 <0>        -0.5000 
     39 O6         21.5885   19.6744   34.0633 O.3       1 <0>        -0.2866 
     40 H1         21.1749   24.7011   20.1012 H         1 <0>         0.0600 
     41 H2         22.9088   24.7607   20.3407 H         1 <0>         0.0600 
     42 H3         21.9053   26.1136   20.8458 H         1 <0>         0.0600 
     43 H4         20.0600   24.2171   23.5810 H         1 <0>         0.0600 
     44 H5         20.1920   25.7849   22.7984 H         1 <0>         0.0600 
     45 H6         19.5940   24.3943   21.9074 H         1 <0>         0.0600 
     46 H7         21.7818   22.3456   23.0007 H         1 <0>         0.0600 
     47 H8         21.1899   22.4494   21.3545 H         1 <0>         0.0600 
     48 H9         22.9111   22.5828   21.6749 H         1 <0>         0.0600 
     49 H10        22.3406   18.4419   35.5318 H         1 <0>         0.0300 
     50 H11        22.8261   18.0039   33.8971 H         1 <0>         0.0300 
     51 H12        23.5559   19.4102   34.7038 H         1 <0>         0.0300 
     52 H13        29.0700   18.3847   29.3028 H         1 <0>         0.1290 
     53 H14        26.3337   15.1709   28.3303 H         1 <0>         0.1290 
     54 H15        27.1993   19.7465   30.0892 H         1 <0>         0.1410 
     55 H16        24.4522   16.5460   29.1156 H         1 <0>         0.1410 
     56 H17        23.3340   25.3989   28.2132 H         1 <0>         0.1150 
     57 H18        22.7911   24.0451   30.1908 H         1 <0>         0.1150 
     58 H19        20.1729   22.3954   30.7030 H         1 <0>         0.0650 
     59 H20        19.8448   21.2744   32.9091 H         1 <0>         0.1550 
     60 H21        22.4764   22.0313   25.6783 H         1 <0>         0.1150 
     61 H22        21.7768   26.9013   23.5527 H         1 <0>         0.0600 
     62 H23        23.4068   26.8724   24.1604 H         1 <0>         0.0600 
     63 H24        23.7954   24.6864   22.8239 H         1 <0>         0.0600 
     64 H25        29.6238   13.9679   27.8256 H         1 <0>         0.4455 
     65 H26        27.9804   14.0893   28.3991 H         1 <0>         0.4455 
     66 H27        30.9030   15.8797   27.5866 H         1 <0>         0.4455 
     67 H28        30.2404   17.4312   28.0313 H         1 <0>         0.4455 
     68 H29        23.6555   18.4505   30.0516 H         1 <0>         0.3000 
     69 H30        21.8692   23.7142   24.5995 H         1 <0>         0.3000 
     70 H31        23.1083   28.0764   22.2346 H         1 <0>         0.4180 
@<TRIPOS>BOND
     1    1   28 1    
     2    1   40 1    
     3    1   41 1    
     4    1   42 1    
     5    2   28 1    
     6    2   43 1    
     7    2   44 1    
     8    2   45 1    
     9    3   28 1    
    10    3   46 1    
    11    3   47 1    
    12    3   48 1    
    13    4   39 1    
    14    4   49 1    
    15    4   50 1    
    16    4   51 1    
    17    5    7 ar   
    18    5   15 ar   
    19    5   52 1    
    20    6    8 ar   
    21    6   15 ar   
    22    6   53 1    
    23    7   16 ar   
    24    7   54 1    
    25    8   16 ar   
    26    8   55 1    
    27    9   10 ar   
    28    9   17 ar   
    29    9   56 1    
    30   10   18 ar   
    31   10   57 1    
    32   11   12 ar   
    33   11   19 ar   
    34   11   58 1    
    35   12   20 ar   
    36   12   59 1    
    37   13   17 ar   
    38   13   21 ar   
    39   13   60 1    
    40   14   23 1    
    41   14   34 1    
    42   14   61 1    
    43   14   62 1    
    44   15   24 1    
    45   16   32 1    
    46   17   25 1    
    47   18   19 1    
    48   18   21 ar   
    49   19   22 ar   
    50   20   31 ar   
    51   20   39 1    
    52   21   26 1    
    53   22   27 1    
    54   22   31 ar   
    55   23   28 1    
    56   23   33 1    
    57   23   63 1    
    58   24   29 1    
    59   24   30 2    
    60   25   33 am   BACKBONE|DICT|INTERRES
    61   25   36 2    
    62   26   35 1    
    63   26   37 2    
    64   27   32 am   BACKBONE|DICT|INTERRES
    65   27   38 2    
    66   29   64 1    
    67   29   65 1    
    68   30   66 1    
    69   30   67 1    
    70   32   68 1    
    71   33   69 1    
    72   34   70 1    
@<TRIPOS>SUBSTRUCTURE
     1 <0>         1 GROUP             0       ****    0 ROOT    
@<TRIPOS>MOLECULE
try1-ligand
70   72    1
SMALL
USER_CHARGES


@<TRIPOS>ATOM
      1 C1         24.6313   28.8290   26.4746 C.3       1 <0>        -0.1800 
      2 C2         23.5240   27.6794   24.5520 C.3       1 <0>        -0.1800 
      3 C3         25.7543   28.7175   24.2216 C.3       1 <0>        -0.1800 
      4 C4         21.3823   19.1540   35.1480 C.3       1 <0>         0.1100 
      5 C5         28.7098   17.5139   29.5064 C.ar      1 <0>        -0.0900 
      6 C6         27.1848   16.0491   28.2983 C.ar      1 <0>        -0.0900 
      7 C7         27.6164   18.2968   29.9340 C.ar      1 <0>        -0.1060 
      8 C8         26.0918   16.8200   28.7425 C.ar      1 <0>        -0.1060 
      9 C9         23.6431   24.3729   28.8161 C.ar      1 <0>        -0.1150 
     10 C10        23.3959   23.4699   29.8659 C.ar      1 <0>        -0.1150 
     11 C11        21.7482   21.4833   31.6196 C.ar      1 <0>         0.2270 
     12 C12        21.5190   20.6961   32.7611 C.ar      1 <0>        -0.4470 
     13 C13        23.2426   22.5867   27.2287 C.ar      1 <0>        -0.1150 
     14 C14        27.0399   26.7328   26.1325 C.3       1 <0>         0.1450 
     15 C15        28.5039   16.3783   28.6886 C.ar      1 <0>        -0.1190 
     16 C16        26.2953   17.9504   29.5609 C.ar      1 <0>         0.2170 
     17 C17        23.6078   23.9230   27.4802 C.ar      1 <0>        -0.1150 
     18 C18        23.0895   22.1111   29.6245 C.ar      1 <0>         0.0000 
     19 C19        22.8836   21.2546   30.8150 C.ar      1 <0>        -0.2920 
     20 C20        22.4418   19.6719   33.0668 C.ar      1 <0>         0.5716 
     21 C21        22.9796   21.6679   28.2697 C.ar      1 <0>        -0.1150 
     22 C22        23.7483   20.1914   31.2055 C.ar      1 <0>         0.3658 
     23 C23        25.5817   26.5900   25.6177 C.3       1 <0>         0.1400 
     24 C24        29.6319   15.5385   28.2518 C.2       1 <0>         0.8270 
     25 C25        23.9602   24.8211   26.3268 C.2       1 <0>         0.6150 
     26 C26        22.5918   20.2591   27.8796 C.2       1 <0>         0.7150 
     27 C27        25.0401   19.8968   30.4936 C.2       1 <0>         0.6192 
     28 C28        24.8849   27.9414   25.2341 C.3       1 <0>         0.0000 
     29 N1         30.8430   16.0429   27.9938 N.pl3     1 <0>        -0.8850 
     30 N2         29.4858   14.2189   28.0722 N.pl3     1 <0>        -0.8850 
     31 N3         23.5162   19.4237   32.2958 N.ar      1 <0>        -0.6780 
     32 N4         25.1487   18.6268   30.0603 N.am      1 <0>        -0.3850 
     33 N5         24.8238   25.8117   26.6026 N.am      1 <0>        -0.5000 
     34 O1         27.9724   26.4430   25.1120 O.3       1 <0>        -0.6830 
     35 O2         22.0423   19.5101   28.7152 O.co2     1 <0>        -0.8000 
     36 O3         23.5559   24.5709   25.1914 O.2       1 <0>        -0.5000 
     37 O4         22.8371   19.8656   26.7152 O.co2     1 <0>        -0.8000 
     38 O5         25.8838   20.7785   30.3149 O.2       1 <0>        -0.5000 
     39 O6         22.3471   18.8364   34.1560 O.3       1 <0>        -0.2866 
     40 H1         24.1299   29.7574   26.1945 H         1 <0>         0.0600 
     41 H2         25.5547   29.1103   26.9821 H         1 <0>         0.0600 
     42 H3         23.9929   28.3269   27.2057 H         1 <0>         0.0600 
     43 H4         23.6315   27.0162   23.6918 H         1 <0>         0.0600 
     44 H5         22.8051   27.2235   25.2325 H         1 <0>         0.0600 
     45 H6         23.0727   28.6053   24.1935 H         1 <0>         0.0600 
     46 H7         25.9803   28.1066   23.3462 H         1 <0>         0.0600 
     47 H8         25.2487   29.6181   23.8678 H         1 <0>         0.0600 
     48 H9         26.7033   29.0380   24.6545 H         1 <0>         0.0600 
     49 H10        21.4528   18.4422   35.9695 H         1 <0>         0.0300 
     50 H11        21.5477   20.1518   35.5584 H         1 <0>         0.0300 
     51 H12        20.3699   19.0949   34.7528 H         1 <0>         0.0300 
     52 H13        29.7034   17.7842   29.8334 H         1 <0>         0.1290 
     53 H14        26.9929   15.1926   27.6688 H         1 <0>         0.1290 
     54 H15        27.8053   19.1383   30.5851 H         1 <0>         0.1410 
     55 H16        25.0901   16.5236   28.4669 H         1 <0>         0.1410 
     56 H17        23.8861   25.3979   29.0544 H         1 <0>         0.1150 
     57 H18        23.4611   23.8258   30.8837 H         1 <0>         0.1150 
     58 H19        21.0541   22.2701   31.3652 H         1 <0>         0.0650 
     59 H20        20.6511   20.8917   33.3713 H         1 <0>         0.1550 
     60 H21        23.1803   22.2513   26.2025 H         1 <0>         0.1150 
     61 H22        27.2417   27.7273   26.5278 H         1 <0>         0.0600 
     62 H23        27.2444   26.0431   26.9518 H         1 <0>         0.0600 
     63 H24        25.6281   25.9784   24.7152 H         1 <0>         0.0600 
     64 H25        31.5678   15.4512   27.5938 H         1 <0>         0.4455 
     65 H26        31.0910   16.9955   28.2717 H         1 <0>         0.4455 
     66 H27        30.2465   13.6710   27.6837 H         1 <0>         0.4455 
     67 H28        28.6671   13.7515   28.4373 H         1 <0>         0.4455 
     68 H29        24.3021   18.0809   30.1372 H         1 <0>         0.3000 
     69 H30        25.1004   25.9179   27.5660 H         1 <0>         0.3000 
     70 H31        28.0251   25.5005   25.0298 H         1 <0>         0.4180 
@<TRIPOS>BOND
     1    1   28 1    
     2    1   40 1    
     3    1   41 1    
     4    1   42 1    
     5    2   28 1    
     6    2   43 1    
     7    2   44 1    
     8    2   45 1    
     9    3   28 1    
    10    3   46 1    
    11    3   47 1    
    12    3   48 1    
    13    4   39 1    
    14    4   49 1    
    15    4   50 1    
    16    4   51 1    
    17    5    7 ar   
    18    5   15 ar   
    19    5   52 1    
    20    6    8 ar   
    21    6   15 ar   
    22    6   53 1    
    23    7   16 ar   
    24    7   54 1    
    25    8   16 ar   
    26    8   55 1    
    27    9   10 ar   
    28    9   17 ar   
    29    9   56 1    
    30   10   18 ar   
    31   10   57 1    
    32   11   12 ar   
    33   11   19 ar   
    34   11   58 1    
    35   12   20 ar   
    36   12   59 1    
    37   13   17 ar   
    38   13   21 ar   
    39   13   60 1    
    40   14   23 1    
    41   14   34 1    
    42   14   61 1    
    43   14   62 1    
    44   15   24 1    
    45   16   32 1    
    46   17   25 1    
    47   18   19 1    
    48   18   21 ar   
    49   19   22 ar   
    50   20   31 ar   
    51   20   39 1    
    52   21   26 1    
    53   22   27 1    
    54   22   31 ar   
    55   23   28 1    
    56   23   33 1    
    57   23   63 1    
    58   24   29 1    
    59   24   30 2    
    60   25   33 am   BACKBONE|DICT|INTERRES
    61   25   36 2    
    62   26   35 1    
    63   26   37 2    
    64   27   32 am   BACKBONE|DICT|INTERRES
    65   27   38 2    
    66   29   64 1    
    67   29   65 1    
    68   30   66 1    
    69   30   67 1    
    70   32   68 1    
    71   33   69 1    
    72   34   70 1    
@<TRIPOS>SUBSTRUCTURE
     1 <0>         1 GROUP             0       ****    0 ROOT    
@<TRIPOS>MOLECULE
try1-ligand
70   72    1
SMALL
USER_CHARGES


@<TRIPOS>ATOM
      1 C1         32.5618   19.2563   37.3135 C.3       1 <0>        -0.1800 
      2 C2         30.3542   20.4088   37.6956 C.3       1 <0>        -0.1800 
      3 C3         31.4621   20.5236   35.4763 C.3       1 <0>        -0.1800 
      4 C4         21.0991   20.1503   27.7170 C.3       1 <0>         0.1100 
      5 C5         27.5814   15.4587   27.7495 C.ar      1 <0>        -0.0900 
      6 C6         28.9712   16.9249   29.1153 C.ar      1 <0>        -0.0900 
      7 C7         26.4574   16.2611   28.0380 C.ar      1 <0>        -0.1060 
      8 C8         27.8572   17.7333   29.3879 C.ar      1 <0>        -0.1060 
      9 C9         25.6479   18.7741   34.9161 C.ar      1 <0>        -0.1150 
     10 C10        24.7289   19.1288   33.9107 C.ar      1 <0>        -0.1150 
     11 C11        23.2154   21.1940   31.9324 C.ar      1 <0>         0.2270 
     12 C12        22.2406   21.4980   30.9639 C.ar      1 <0>        -0.4470 
     13 C13        27.4287   19.7744   33.6147 C.ar      1 <0>        -0.1150 
     14 C14        30.3601   17.0628   37.1527 C.3       1 <0>         0.1450 
     15 C15        28.8504   15.7922   28.2788 C.ar      1 <0>        -0.1190 
     16 C16        26.5992   17.4031   28.8519 C.ar      1 <0>         0.2170 
     17 C17        27.0149   19.0779   34.7693 C.ar      1 <0>        -0.1150 
     18 C18        25.1372   19.7986   32.7347 C.ar      1 <0>         0.0000 
     19 C19        24.0864   20.1047   31.7306 C.ar      1 <0>        -0.2920 
     20 C20        22.1614   20.7021   29.8078 C.ar      1 <0>         0.5716 
     21 C21        26.5221   20.1304   32.5894 C.ar      1 <0>        -0.1150 
     22 C22        23.9214   19.3626   30.5288 C.ar      1 <0>         0.3658 
     23 C23        30.4812   18.2837   36.1947 C.3       1 <0>         0.1400 
     24 C24        30.0557   15.0380   27.9155 C.2       1 <0>         0.8270 
     25 C25        28.0031   18.7148   35.8442 C.2       1 <0>         0.6150 
     26 C26        27.0888   20.8408   31.3829 C.2       1 <0>         0.7150 
     27 C27        24.7870   18.1750   30.2483 C.2       1 <0>         0.6192 
     28 C28        31.1940   19.5952   36.6840 C.3       1 <0>         0.0000 
     29 N1         31.2432   15.6429   27.9203 N.pl3     1 <0>        -0.8850 
     30 N2         30.0429   13.7524   27.5369 N.pl3     1 <0>        -0.8850 
     31 N3         22.9813   19.6483   29.5969 N.ar      1 <0>        -0.6780 
     32 N4         25.5025   18.2451   29.1192 N.am      1 <0>        -0.3850 
     33 N5         29.2634   18.5238   35.4143 N.am      1 <0>        -0.5000 
     34 O1         30.2189   17.3627   38.5244 O.3       1 <0>        -0.6830 
     35 O2         28.2295   21.3475   31.4577 O.co2     1 <0>        -0.8000 
     36 O3         27.6463   18.5841   37.0143 O.2       1 <0>        -0.5000 
     37 O4         26.4416   20.8720   30.3151 O.co2     1 <0>        -0.8000 
     38 O5         24.8425   17.2429   31.0411 O.2       1 <0>        -0.5000 
     39 O6         21.1945   20.9876   28.8661 O.3       1 <0>        -0.2866 
     40 H1         33.1066   20.1603   37.5873 H         1 <0>         0.0600 
     41 H2         33.1905   18.6955   36.6219 H         1 <0>         0.0600 
     42 H3         32.4599   18.6616   38.2213 H         1 <0>         0.0600 
     43 H4         29.4128   20.7457   37.2628 H         1 <0>         0.0600 
     44 H5         30.1161   19.8469   38.5960 H         1 <0>         0.0600 
     45 H6         30.8890   21.3021   38.0185 H         1 <0>         0.0600 
     46 H7         30.5377   20.8371   34.9899 H         1 <0>         0.0600 
     47 H8         31.9812   21.4327   35.7833 H         1 <0>         0.0600 
     48 H9         32.0829   20.0427   34.7219 H         1 <0>         0.0600 
     49 H10        20.3023   20.5135   27.0685 H         1 <0>         0.0300 
     50 H11        22.0242   20.1559   27.1387 H         1 <0>         0.0300 
     51 H12        20.8567   19.1232   27.9921 H         1 <0>         0.0300 
     52 H13        27.4568   14.6048   27.1023 H         1 <0>         0.1290 
     53 H14        29.9218   17.2085   29.5446 H         1 <0>         0.1290 
     54 H15        25.4942   16.0061   27.6233 H         1 <0>         0.1410 
     55 H16        27.9776   18.6068   30.0113 H         1 <0>         0.1410 
     56 H17        25.2961   18.2625   35.8004 H         1 <0>         0.1150 
     57 H18        23.6877   18.8716   34.0429 H         1 <0>         0.1150 
     58 H19        23.2989   21.7988   32.8235 H         1 <0>         0.0650 
     59 H20        21.5672   22.3297   31.1040 H         1 <0>         0.1550 
     60 H21        28.4700   20.0411   33.5012 H         1 <0>         0.1150 
     61 H22        29.5244   16.4325   36.8545 H         1 <0>         0.0600 
     62 H23        31.2552   16.4455   37.0626 H         1 <0>         0.0600 
     63 H24        31.1363   17.8994   35.4112 H         1 <0>         0.0600 
     64 H25        32.0801   15.1173   27.6000 H         1 <0>         0.4455 
     65 H26        31.3406   16.6104   28.2154 H         1 <0>         0.4455 
     66 H27        30.8899   13.3261   27.1459 H         1 <0>         0.4455 
     67 H28        29.2373   13.1716   27.7103 H         1 <0>         0.4455 
     68 H29        25.4638   19.1333   28.6405 H         1 <0>         0.3000 
     69 H30        29.4045   18.6035   34.4163 H         1 <0>         0.3000 
     70 H31        30.2470   16.5508   39.0103 H         1 <0>         0.4180 
@<TRIPOS>BOND
     1    1   28 1    
     2    1   40 1    
     3    1   41 1    
     4    1   42 1    
     5    2   28 1    
     6    2   43 1    
     7    2   44 1    
     8    2   45 1    
     9    3   28 1    
    10    3   46 1    
    11    3   47 1    
    12    3   48 1    
    13    4   39 1    
    14    4   49 1    
    15    4   50 1    
    16    4   51 1    
    17    5    7 ar   
    18    5   15 ar   
    19    5   52 1    
    20    6    8 ar   
    21    6   15 ar   
    22    6   53 1    
    23    7   16 ar   
    24    7   54 1    
    25    8   16 ar   
    26    8   55 1    
    27    9   10 ar   
    28    9   17 ar   
    29    9   56 1    
    30   10   18 ar   
    31   10   57 1    
    32   11   12 ar   
    33   11   19 ar   
    34   11   58 1    
    35   12   20 ar   
    36   12   59 1    
    37   13   17 ar   
    38   13   21 ar   
    39   13   60 1    
    40   14   23 1    
    41   14   34 1    
    42   14   61 1    
    43   14   62 1    
    44   15   24 1    
    45   16   32 1    
    46   17   25 1    
    47   18   19 1    
    48   18   21 ar   
    49   19   22 ar   
    50   20   31 ar   
    51   20   39 1    
    52   21   26 1    
    53   22   27 1    
    54   22   31 ar   
    55   23   28 1    
    56   23   33 1    
    57   23   63 1    
    58   24   29 1    
    59   24   30 2    
    60   25   33 am   BACKBONE|DICT|INTERRES
    61   25   36 2    
    62   26   35 1    
    63   26   37 2    
    64   27   32 am   BACKBONE|DICT|INTERRES
    65   27   38 2    
    66   29   64 1    
    67   29   65 1    
    68   30   66 1    
    69   30   67 1    
    70   32   68 1    
    71   33   69 1    
    72   34   70 1    
@<TRIPOS>SUBSTRUCTURE
     1 <0>         1 GROUP             0       ****    0 ROOT    
@<TRIPOS>MOLECULE
try1-ligand
70   72    1
SMALL
USER_CHARGES


@<TRIPOS>ATOM
      1 C1         20.1587   24.5426   22.9056 C.3       1 <0>        -0.1800 
      2 C2         21.8147   22.7716   22.2752 C.3       1 <0>        -0.1800 
      3 C3         21.6275   24.8247   20.8860 C.3       1 <0>        -0.1800 
      4 C4         23.5503   18.5837   34.4075 C.3       1 <0>         0.1100 
      5 C5         27.2348   16.1592   28.3158 C.ar      1 <0>        -0.0900 
      6 C6         28.8736   17.4240   29.6061 C.ar      1 <0>        -0.0900 
      7 C7         26.2068   16.9625   28.8482 C.ar      1 <0>        -0.1060 
      8 C8         27.8456   18.2121   30.1541 C.ar      1 <0>        -0.1060 
      9 C9         23.6407   24.0026   28.0206 C.ar      1 <0>        -0.1150 
     10 C10        23.4266   23.1602   29.1253 C.ar      1 <0>        -0.1150 
     11 C11        21.6953   21.5861   31.1717 C.ar      1 <0>         0.2270 
     12 C12        21.5963   21.0005   32.4455 C.ar      1 <0>        -0.4470 
     13 C13        22.6018   22.3443   26.5922 C.ar      1 <0>        -0.1150 
     14 C14        22.6189   26.5306   23.2990 C.3       1 <0>         0.1450 
     15 C15        28.5747   16.3801   28.7039 C.ar      1 <0>        -0.1190 
     16 C16        26.5106   17.9907   29.7711 C.ar      1 <0>         0.2170 
     17 C17        23.2342   23.5964   26.7370 C.ar      1 <0>        -0.1150 
     18 C18        22.8084   21.8960   28.9921 C.ar      1 <0>         0.0000 
     19 C19        22.6498   21.1162   30.2420 C.ar      1 <0>        -0.2920 
     20 C20        22.4675   19.9493   32.7617 C.ar      1 <0>         0.5716 
     21 C21        22.3689   21.4949   27.6968 C.ar      1 <0>        -0.1150 
     22 C22        23.4370   19.9904   30.6323 C.ar      1 <0>         0.3658 
     23 C23        22.6677   24.9785   23.2329 C.3       1 <0>         0.1400 
     24 C24        29.6479   15.5347   28.1814 C.2       1 <0>         0.8270 
     25 C25        23.5316   24.4459   25.5377 C.2       1 <0>         0.6150 
     26 C26        21.6958   20.1771   27.4300 C.2       1 <0>         0.7150 
     27 C27        24.4444   19.3141   29.7311 C.2       1 <0>         0.6192 
     28 C28        21.5747   24.3003   22.3361 C.3       1 <0>         0.0000 
     29 N1         30.8503   16.0428   27.9150 N.pl3     1 <0>        -0.8850 
     30 N2         29.4675   14.2279   27.9448 N.pl3     1 <0>        -0.8850 
     31 N3         23.3381   19.4395   31.8656 N.ar      1 <0>        -0.6780 
     32 N4         25.4961   18.7742   30.3674 N.am      1 <0>        -0.3850 
     33 N5         22.5997   24.4012   24.5763 N.am      1 <0>        -0.5000 
     34 O1         23.2387   27.1236   22.1759 O.3       1 <0>        -0.6830 
     35 O2         20.9912   19.6431   28.3145 O.co2     1 <0>        -0.8000 
     36 O3         24.5493   25.1350   25.4807 O.2       1 <0>        -0.5000 
     37 O4         21.9040   19.6491   26.3153 O.co2     1 <0>        -0.8000 
     38 O5         24.3356   19.2757   28.5091 O.2       1 <0>        -0.5000 
     39 O6         22.4666   19.4324   34.0395 O.3       1 <0>        -0.2866 
     40 H1         19.3945   24.0431   22.3149 H         1 <0>         0.0600 
     41 H2         19.9046   25.6008   22.9043 H         1 <0>         0.0600 
     42 H3         20.0474   24.1769   23.9275 H         1 <0>         0.0600 
     43 H4         22.8166   22.5446   21.9106 H         1 <0>         0.0600 
     44 H5         21.7029   22.2933   23.2463 H         1 <0>         0.0600 
     45 H6         21.1088   22.2822   21.6033 H         1 <0>         0.0600 
     46 H7         22.6260   24.7234   20.4589 H         1 <0>         0.0600 
     47 H8         20.9422   24.2718   20.2418 H         1 <0>         0.0600 
     48 H9         21.3323   25.8713   20.8175 H         1 <0>         0.0600 
     49 H10        23.5497   18.4445   35.4862 H         1 <0>         0.0300 
     50 H11        23.4624   17.6061   33.9306 H         1 <0>         0.0300 
     51 H12        24.5173   19.0199   34.1506 H         1 <0>         0.0300 
     52 H13        26.9797   15.3752   27.6174 H         1 <0>         0.1290 
     53 H14        29.8916   17.6071   29.9193 H         1 <0>         0.1290 
     54 H15        25.1843   16.7662   28.5613 H         1 <0>         0.1410 
     55 H16        28.0921   18.9840   30.8668 H         1 <0>         0.1410 
     56 H17        24.1371   24.9519   28.1580 H         1 <0>         0.1150 
     57 H18        23.7615   23.4897   30.0992 H         1 <0>         0.1150 
     58 H19        21.0672   22.4292   30.9262 H         1 <0>         0.0650 
     59 H20        20.8996   21.3804   33.1788 H         1 <0>         0.1550 
     60 H21        22.3010   22.0097   25.6103 H         1 <0>         0.1150 
     61 H22        21.6033   26.9097   23.4041 H         1 <0>         0.0600 
     62 H23        23.1658   26.9028   24.1662 H         1 <0>         0.0600 
     63 H24        23.6438   24.6969   22.8364 H         1 <0>         0.0600 
     64 H25        31.5710   15.4565   27.4995 H         1 <0>         0.4455 
     65 H26        31.1027   16.9890   28.2086 H         1 <0>         0.4455 
     66 H27        30.2138   13.6821   27.5258 H         1 <0>         0.4455 
     67 H28        28.6529   13.7644   28.3192 H         1 <0>         0.4455 
     68 H29        25.5474   18.9461   31.3619 H         1 <0>         0.3000 
     69 H30        21.7926   23.8251   24.7641 H         1 <0>         0.3000 
     70 H31        22.8123   26.8086   21.3924 H         1 <0>         0.4180 
@<TRIPOS>BOND
     1    1   28 1    
     2    1   40 1    
     3    1   41 1    
     4    1   42 1    
     5    2   28 1    
     6    2   43 1    
     7    2   44 1    
     8    2   45 1    
     9    3   28 1    
    10    3   46 1    
    11    3   47 1    
    12    3   48 1    
    13    4   39 1    
    14    4   49 1    
    15    4   50 1    
    16    4   51 1    
    17    5    7 ar   
    18    5   15 ar   
    19    5   52 1    
    20    6    8 ar   
    21    6   15 ar   
    22    6   53 1    
    23    7   16 ar   
    24    7   54 1    
    25    8   16 ar   
    26    8   55 1    
    27    9   10 ar   
    28    9   17 ar   
    29    9   56 1    
    30   10   18 ar   
    31   10   57 1    
    32   11   12 ar   
    33   11   19 ar   
    34   11   58 1    
    35   12   20 ar   
    36   12   59 1    
    37   13   17 ar   
    38   13   21 ar   
    39   13   60 1    
    40   14   23 1    
    41   14   34 1    
    42   14   61 1    
    43   14   62 1    
    44   15   24 1    
    45   16   32 1    
    46   17   25 1    
    47   18   19 1    
    48   18   21 ar   
    49   19   22 ar   
    50   20   31 ar   
    51   20   39 1    
    52   21   26 1    
    53   22   27 1    
    54   22   31 ar   
    55   23   28 1    
    56   23   33 1    
    57   23   63 1    
    58   24   29 1    
    59   24   30 2    
    60   25   33 am   BACKBONE|DICT|INTERRES
    61   25   36 2    
    62   26   35 1    
    63   26   37 2    
    64   27   32 am   BACKBONE|DICT|INTERRES
    65   27   38 2    
    66   29   64 1    
    67   29   65 1    
    68   30   66 1    
    69   30   67 1    
    70   32   68 1    
    71   33   69 1    
    72   34   70 1    
@<TRIPOS>SUBSTRUCTURE
     1 <0>         1 GROUP             0       ****    0 ROOT    
@<TRIPOS>MOLECULE
try1-ligand
70   72    1
SMALL
USER_CHARGES


@<TRIPOS>ATOM
      1 C1         21.0428   24.1202   22.5854 C.3       1 <0>        -0.1800 
      2 C2         21.8916   25.9456   21.1365 C.3       1 <0>        -0.1800 
      3 C3         20.4974   26.4942   23.1457 C.3       1 <0>        -0.1800 
      4 C4         22.1367   18.7503   34.4781 C.3       1 <0>         0.1100 
      5 C5         28.1387   17.7505   29.3651 C.ar      1 <0>        -0.0900 
      6 C6         26.5791   16.0167   28.6636 C.ar      1 <0>        -0.0900 
      7 C7         27.0577   18.5385   29.8194 C.ar      1 <0>        -0.1060 
      8 C8         25.5076   16.7931   29.1461 C.ar      1 <0>        -0.1060 
      9 C9         23.4370   24.3442   28.1100 C.ar      1 <0>        -0.1150 
     10 C10        23.1069   23.5525   29.2215 C.ar      1 <0>        -0.1150 
     11 C11        21.1004   21.8804   30.9744 C.ar      1 <0>         0.2270 
     12 C12        20.7463   21.2662   32.1844 C.ar      1 <0>        -0.4470 
     13 C13        22.8032   22.5147   26.6452 C.ar      1 <0>        -0.1150 
     14 C14        23.4749   27.0845   23.6957 C.3       1 <0>         0.1450 
     15 C15        27.9114   16.4813   28.7797 C.ar      1 <0>        -0.1190 
     16 C16        25.7281   18.0644   29.7128 C.ar      1 <0>         0.2170 
     17 C17        23.2685   23.8328   26.8134 C.ar      1 <0>        -0.1150 
     18 C18        22.6379   22.2298   29.0720 C.ar      1 <0>         0.0000 
     19 C19        22.2980   21.5178   30.3235 C.ar      1 <0>        -0.2920 
     20 C20        21.6038   20.2913   32.7156 C.ar      1 <0>         0.5716 
     21 C21        22.5087   21.6880   27.7552 C.ar      1 <0>        -0.1150 
     22 C22        23.0923   20.5057   30.9325 C.ar      1 <0>         0.3658 
     23 C23        22.8978   25.6469   23.4777 C.3       1 <0>         0.1400 
     24 C24        29.0373   15.6460   28.3204 C.2       1 <0>         0.8270 
     25 C25        23.6836   24.6543   25.6370 C.2       1 <0>         0.6150 
     26 C26        22.0953   20.2605   27.4848 C.2       1 <0>         0.7150 
     27 C27        24.4263   20.1016   30.3625 C.2       1 <0>         0.6192 
     28 C28        21.5981   25.5642   22.6058 C.3       1 <0>         0.0000 
     29 N1         28.9639   14.3086   28.3073 N.pl3     1 <0>        -0.8850 
     30 N2         30.1925   16.1762   27.9150 N.pl3     1 <0>        -0.8850 
     31 N3         22.7448   19.9070   32.0987 N.ar      1 <0>        -0.6780 
     32 N4         24.5926   18.7733   30.2051 N.am      1 <0>        -0.3850 
     33 N5         22.7110   24.9636   24.7636 N.am      1 <0>        -0.5000 
     34 O1         24.0181   27.6434   22.5194 O.3       1 <0>        -0.6830 
     35 O2         22.4430   19.7360   26.4016 O.co2     1 <0>        -0.8000 
     36 O3         24.8563   24.9999   25.5165 O.2       1 <0>        -0.5000 
     37 O4         21.4503   19.6212   28.3427 O.co2     1 <0>        -0.8000 
     38 O5         25.2577   20.9537   30.0569 O.2       1 <0>        -0.5000 
     39 O6         21.2465   19.6945   33.9032 O.3       1 <0>        -0.2866 
     40 H1         20.1848   24.0418   21.9158 H         1 <0>         0.0600 
     41 H2         20.7014   23.7856   23.5655 H         1 <0>         0.0600 
     42 H3         21.7924   23.4095   22.2349 H         1 <0>         0.0600 
     43 H4         22.0892   27.0086   21.0147 H         1 <0>         0.0600 
     44 H5         22.7517   25.3950   20.7487 H         1 <0>         0.0600 
     45 H6         21.0456   25.7167   20.4876 H         1 <0>         0.0600 
     46 H7         20.7953   27.5413   23.1412 H         1 <0>         0.0600 
     47 H8         19.6214   26.4370   22.5072 H         1 <0>         0.0600 
     48 H9         20.1962   26.2328   24.1592 H         1 <0>         0.0600 
     49 H10        21.7316   18.4437   35.4412 H         1 <0>         0.0300 
     50 H11        22.2295   17.8607   33.8519 H         1 <0>         0.0300 
     51 H12        23.1265   19.1734   34.6534 H         1 <0>         0.0300 
     52 H13        29.1457   18.1301   29.4813 H         1 <0>         0.1290 
     53 H14        26.3681   15.0497   28.2324 H         1 <0>         0.1290 
     54 H15        27.2734   19.4930   30.2744 H         1 <0>         0.1410 
     55 H16        24.4996   16.3988   29.1078 H         1 <0>         0.1410 
     56 H17        23.8182   25.3440   28.2558 H         1 <0>         0.1150 
     57 H18        23.2258   23.9697   30.2108 H         1 <0>         0.1150 
     58 H19        20.4579   22.6357   30.5476 H         1 <0>         0.0650 
     59 H20        19.8347   21.5406   32.6956 H         1 <0>         0.1550 
     60 H21        22.7050   22.1195   25.6427 H         1 <0>         0.1150 
     61 H22        22.7390   27.7607   24.1301 H         1 <0>         0.0600 
     62 H23        24.3028   27.0794   24.4038 H         1 <0>         0.0600 
     63 H24        23.6430   25.0557   22.9542 H         1 <0>         0.0600 
     64 H25        29.7458   13.7599   27.9746 H         1 <0>         0.4455 
     65 H26        28.2158   13.8437   28.8042 H         1 <0>         0.4455 
     66 H27        30.8791   15.6134   27.4255 H         1 <0>         0.4455 
     67 H28        30.4012   17.1557   28.0767 H         1 <0>         0.4455 
     68 H29        23.7784   18.2181   30.4209 H         1 <0>         0.3000 
     69 H30        21.7801   24.6306   24.9687 H         1 <0>         0.3000 
     70 H31        23.3155   27.7597   21.8956 H         1 <0>         0.4180 
@<TRIPOS>BOND
     1    1   28 1    
     2    1   40 1    
     3    1   41 1    
     4    1   42 1    
     5    2   28 1    
     6    2   43 1    
     7    2   44 1    
     8    2   45 1    
     9    3   28 1    
    10    3   46 1    
    11    3   47 1    
    12    3   48 1    
    13    4   39 1    
    14    4   49 1    
    15    4   50 1    
    16    4   51 1    
    17    5    7 ar   
    18    5   15 ar   
    19    5   52 1    
    20    6    8 ar   
    21    6   15 ar   
    22    6   53 1    
    23    7   16 ar   
    24    7   54 1    
    25    8   16 ar   
    26    8   55 1    
    27    9   10 ar   
    28    9   17 ar   
    29    9   56 1    
    30   10   18 ar   
    31   10   57 1    
    32   11   12 ar   
    33   11   19 ar   
    34   11   58 1    
    35   12   20 ar   
    36   12   59 1    
    37   13   17 ar   
    38   13   21 ar   
    39   13   60 1    
    40   14   23 1    
    41   14   34 1    
    42   14   61 1    
    43   14   62 1    
    44   15   24 1    
    45   16   32 1    
    46   17   25 1    
    47   18   19 1    
    48   18   21 ar   
    49   19   22 ar   
    50   20   31 ar   
    51   20   39 1    
    52   21   26 1    
    53   22   27 1    
    54   22   31 ar   
    55   23   28 1    
    56   23   33 1    
    57   23   63 1    
    58   24   29 1    
    59   24   30 2    
    60   25   33 am   BACKBONE|DICT|INTERRES
    61   25   36 2    
    62   26   35 1    
    63   26   37 2    
    64   27   32 am   BACKBONE|DICT|INTERRES
    65   27   38 2    
    66   29   64 1    
    67   29   65 1    
    68   30   66 1    
    69   30   67 1    
    70   32   68 1    
    71   33   69 1    
    72   34   70 1    
@<TRIPOS>SUBSTRUCTURE
     1 <0>         1 GROUP             0       ****    0 ROOT    
