@<TRIPOS>MOLECULE
tryb1-ligand
51   54    1
SMALL
USER_CHARGES


@<TRIPOS>ATOM
      1 C1         30.5367   71.9399   82.8298 C.ar      1 <0>        -0.1150 
      2 C2         31.4043   72.9795   82.4484 C.ar      1 <0>        -0.1150 
      3 C3         29.2223   72.2396   83.2326 C.ar      1 <0>        -0.1150 
      4 C4         30.9554   74.3145   82.4730 C.ar      1 <0>        -0.1150 
      5 C5         28.7736   73.5739   83.2578 C.ar      1 <0>        -0.1150 
      6 C6         19.8607   77.8153   83.6608 C.ar      1 <0>        -0.1150 
      7 C7         20.2628   78.3398   84.9075 C.ar      1 <0>        -0.1150 
      8 C8         22.1811   77.8176   82.8756 C.ar      1 <0>        -0.1150 
      9 C9         24.7125   79.5542   83.6322 C.3       1 <0>        -0.1200 
     10 C10        24.7110   77.3606   84.9395 C.3       1 <0>        -0.1200 
     11 C11        26.1898   79.7186   84.0378 C.3       1 <0>        -0.0500 
     12 C12        26.1914   77.6403   85.2683 C.3       1 <0>        -0.0500 
     13 C13        23.5640   79.4019   85.9507 C.3       1 <0>         0.1400 
     14 C14        20.3664   76.9750   81.3118 C.3       1 <0>         0.3050 
     15 C15        29.2193   76.0419   82.8894 C.2       1 <0>        -0.1150 
     16 C16        28.0434   76.5165   83.3432 C.2       1 <0>        -0.1717 
     17 C17        29.6375   74.6280   82.8749 C.ar      1 <0>         0.0000 
     18 C18        20.8113   77.5542   82.6415 C.ar      1 <0>        -0.1150 
     19 C19        21.6241   78.6105   85.1129 C.ar      1 <0>         0.0850 
     20 C20        22.5572   78.3405   84.1275 C.ar      1 <0>        -0.1150 
     21 C21        27.7361   77.9396   83.2719 C.2       1 <0>         0.5567 
     22 C22        23.9311   78.6602   84.6307 C.3       1 <0>         0.1150 
     23 N1         20.5370   77.9394   80.2160 N.4       1 <0>        -0.3000 
     24 N2         26.7969   78.3838   84.1516 N.am      1 <0>        -0.1400 
     25 O1         28.2333   78.6823   82.4236 O.2       1 <0>        -0.5000 
     26 O2         22.1817   79.1396   86.2394 O.3       1 <0>        -0.2850 
     27 H1         30.8771   70.9140   82.8039 H         1 <0>         0.1150 
     28 H2         32.4125   72.7527   82.1337 H         1 <0>         0.1150 
     29 H3         28.5495   71.4418   83.5068 H         1 <0>         0.1150 
     30 H4         31.6336   75.1014   82.1777 H         1 <0>         0.1150 
     31 H5         27.7553   73.7642   83.5594 H         1 <0>         0.1150 
     32 H6         18.8148   77.6181   83.4917 H         1 <0>         0.1150 
     33 H7         19.5352   78.5538   85.6767 H         1 <0>         0.1150 
     34 H8         22.9261   77.6034   82.1226 H         1 <0>         0.1150 
     35 H9         24.2316   80.5284   83.5314 H         1 <0>         0.0600 
     36 H10        24.6868   79.1050   82.6375 H         1 <0>         0.0600 
     37 H11        24.6579   76.7061   84.0726 H         1 <0>         0.0600 
     38 H12        24.2382   76.8158   85.7572 H         1 <0>         0.0600 
     39 H13        26.2673   80.2434   84.9914 H         1 <0>         0.0600 
     40 H14        26.6942   80.3589   83.3133 H         1 <0>         0.0600 
     41 H15        26.7089   76.7191   85.5315 H         1 <0>         0.0600 
     42 H16        26.2623   78.2488   86.1704 H         1 <0>         0.0600 
     43 H17        24.1884   79.1069   86.7934 H         1 <0>         0.0300 
     44 H18        23.6824   80.4764   85.8336 H         1 <0>         0.0300 
     45 H19        20.9362   76.0711   81.1009 H         1 <0>         0.0600 
     46 H20        19.3185   76.6793   81.3604 H         1 <0>         0.0600 
     47 H21        29.9401   76.7406   82.4869 H         1 <0>         0.1150 
     48 H22        27.3132   75.8304   83.7324 H         1 <0>         0.1150 
     49 H23        20.1862   77.5585   79.3398 H         1 <0>         0.3300 
     50 H24        19.9974   78.7787   80.4215 H         1 <0>         0.3300 
     51 H25        21.5168   78.1789   80.1115 H         1 <0>         0.3300 
@<TRIPOS>BOND
     1    1    2 ar   
     2    1    3 ar   
     3    1   27 1    
     4    2    4 ar   
     5    2   28 1    
     6    3    5 ar   
     7    3   29 1    
     8    4   17 ar   
     9    4   30 1    
    10    5   17 ar   
    11    5   31 1    
    12    6    7 ar   
    13    6   18 ar   
    14    6   32 1    
    15    7   19 ar   
    16    7   33 1    
    17    8   18 ar   
    18    8   20 ar   
    19    8   34 1    
    20    9   11 1    
    21    9   22 1    
    22    9   35 1    
    23    9   36 1    
    24   10   12 1    
    25   10   22 1    
    26   10   37 1    
    27   10   38 1    
    28   11   24 1    
    29   11   39 1    
    30   11   40 1    
    31   12   24 1    
    32   12   41 1    
    33   12   42 1    
    34   13   22 1    
    35   13   26 1    
    36   13   43 1    
    37   13   44 1    
    38   14   18 1    
    39   14   23 1    
    40   14   45 1    
    41   14   46 1    
    42   15   16 2    
    43   15   17 1    
    44   15   47 1    
    45   16   21 1    
    46   16   48 1    
    47   19   20 ar   
    48   19   26 1    
    49   20   22 1    
    50   21   24 am   BACKBONE|DICT|INTERRES
    51   21   25 2    
    52   23   49 1    
    53   23   50 1    
    54   23   51 1    
@<TRIPOS>SUBSTRUCTURE
     1 <0>         1 GROUP             0       ****    0 ROOT    
@<TRIPOS>MOLECULE
tryb1-ligand
51   54    1
SMALL
USER_CHARGES


@<TRIPOS>ATOM
      1 C1         30.1613   72.4611   83.9574 C.ar      1 <0>        -0.1150 
      2 C2         30.6540   73.6186   84.5867 C.ar      1 <0>        -0.1150 
      3 C3         28.9521   72.5106   83.2394 C.ar      1 <0>        -0.1150 
      4 C4         29.9454   74.8318   84.4872 C.ar      1 <0>        -0.1150 
      5 C5         28.2439   73.7235   83.1447 C.ar      1 <0>        -0.1150 
      6 C6         19.7851   77.7683   83.7165 C.ar      1 <0>        -0.1150 
      7 C7         20.1354   78.2892   84.9790 C.ar      1 <0>        -0.1150 
      8 C8         22.1260   77.8436   82.9982 C.ar      1 <0>        -0.1150 
      9 C9         24.4685   79.8057   83.8738 C.3       1 <0>        -0.1200 
     10 C10        24.7171   77.5409   85.0066 C.3       1 <0>        -0.1200 
     11 C11        25.9118   80.1118   84.3116 C.3       1 <0>        -0.0500 
     12 C12        26.1390   77.9750   85.4270 C.3       1 <0>        -0.0500 
     13 C13        23.3762   79.3648   86.1802 C.3       1 <0>         0.1400 
     14 C14        20.3610   76.9701   81.3766 C.3       1 <0>         0.3050 
     15 C15        27.9900   76.1474   83.5791 C.2       1 <0>        -0.1150 
     16 C16        28.4654   77.3943   83.7559 C.2       1 <0>        -0.1717 
     17 C17        28.7297   74.8923   83.7690 C.ar      1 <0>         0.0000 
     18 C18        20.7690   77.5461   82.7215 C.ar      1 <0>        -0.1150 
     19 C19        21.4811   78.5907   85.2290 C.ar      1 <0>         0.0850 
     20 C20        22.4507   78.3626   84.2679 C.ar      1 <0>        -0.1150 
     21 C21        27.6387   78.5562   83.4689 C.2       1 <0>         0.5567 
     22 C22        23.7930   78.7644   84.8015 C.3       1 <0>         0.1150 
     23 N1         20.5370   77.9395   80.2838 N.4       1 <0>        -0.3000 
     24 N2         26.6779   78.8586   84.3823 N.am      1 <0>        -0.1400 
     25 O1         27.8347   79.2522   82.4735 O.2       1 <0>        -0.5000 
     26 O2         21.9770   79.1304   86.3776 O.3       1 <0>        -0.2850 
     27 H1         30.7182   71.5401   84.0163 H         1 <0>         0.1150 
     28 H2         31.5846   73.5803   85.1335 H         1 <0>         0.1150 
     29 H3         28.5795   71.6248   82.7461 H         1 <0>         0.1150 
     30 H4         30.3480   75.7100   84.9679 H         1 <0>         0.1150 
     31 H5         27.3342   73.7587   82.5638 H         1 <0>         0.1150 
     32 H6         18.7490   77.5434   83.5217 H         1 <0>         0.1150 
     33 H7         19.3803   78.4778   85.7278 H         1 <0>         0.1150 
     34 H8         22.8977   77.6718   82.2607 H         1 <0>         0.1150 
     35 H9         23.8812   80.7241   83.8351 H         1 <0>         0.0600 
     36 H10        24.4984   79.4254   82.8514 H         1 <0>         0.0600 
     37 H11        24.7770   76.9824   84.0733 H         1 <0>         0.0600 
     38 H12        24.2932   76.8590   85.7448 H         1 <0>         0.0600 
     39 H13        25.9166   80.5937   85.2904 H         1 <0>         0.0600 
     40 H14        26.3563   80.8400   83.6312 H         1 <0>         0.0600 
     41 H15        26.7503   77.1001   85.6362 H         1 <0>         0.0600 
     42 H16        26.1131   78.5186   86.3717 H         1 <0>         0.0600 
     43 H17        23.9266   78.9268   87.0127 H         1 <0>         0.0300 
     44 H18        23.5586   80.4355   86.2201 H         1 <0>         0.0300 
     45 H19        20.9368   76.0696   81.1727 H         1 <0>         0.0600 
     46 H20        19.3154   76.6645   81.4038 H         1 <0>         0.0600 
     47 H21        26.9604   76.0362   83.2844 H         1 <0>         0.1150 
     48 H22        29.4821   77.5589   84.0780 H         1 <0>         0.1150 
     49 H23        20.2111   77.5475   79.4018 H         1 <0>         0.3300 
     50 H24        19.9792   78.7717   80.4702 H         1 <0>         0.3300 
     51 H25        21.5141   78.1928   80.1982 H         1 <0>         0.3300 
@<TRIPOS>BOND
     1    1    2 ar   
     2    1    3 ar   
     3    1   27 1    
     4    2    4 ar   
     5    2   28 1    
     6    3    5 ar   
     7    3   29 1    
     8    4   17 ar   
     9    4   30 1    
    10    5   17 ar   
    11    5   31 1    
    12    6    7 ar   
    13    6   18 ar   
    14    6   32 1    
    15    7   19 ar   
    16    7   33 1    
    17    8   18 ar   
    18    8   20 ar   
    19    8   34 1    
    20    9   11 1    
    21    9   22 1    
    22    9   35 1    
    23    9   36 1    
    24   10   12 1    
    25   10   22 1    
    26   10   37 1    
    27   10   38 1    
    28   11   24 1    
    29   11   39 1    
    30   11   40 1    
    31   12   24 1    
    32   12   41 1    
    33   12   42 1    
    34   13   22 1    
    35   13   26 1    
    36   13   43 1    
    37   13   44 1    
    38   14   18 1    
    39   14   23 1    
    40   14   45 1    
    41   14   46 1    
    42   15   16 2    
    43   15   17 1    
    44   15   47 1    
    45   16   21 1    
    46   16   48 1    
    47   19   20 ar   
    48   19   26 1    
    49   20   22 1    
    50   21   24 am   BACKBONE|DICT|INTERRES
    51   21   25 2    
    52   23   49 1    
    53   23   50 1    
    54   23   51 1    
@<TRIPOS>SUBSTRUCTURE
     1 <0>         1 GROUP             0       ****    0 ROOT    
@<TRIPOS>MOLECULE
tryb1-ligand
51   54    1
SMALL
USER_CHARGES


@<TRIPOS>ATOM
      1 C1         31.5936   72.3401   84.0724 C.ar      1 <0>        -0.1150 
      2 C2         31.6494   73.5104   84.8517 C.ar      1 <0>        -0.1150 
      3 C3         30.6019   72.1997   83.0843 C.ar      1 <0>        -0.1150 
      4 C4         30.7423   74.5612   84.6107 C.ar      1 <0>        -0.1150 
      5 C5         29.6953   73.2508   82.8475 C.ar      1 <0>        -0.1150 
      6 C6         19.8367   77.8445   83.6755 C.ar      1 <0>        -0.1150 
      7 C7         20.2244   78.3395   84.9376 C.ar      1 <0>        -0.1150 
      8 C8         22.1766   77.7355   82.9602 C.ar      1 <0>        -0.1150 
      9 C9         24.7535   79.3463   83.7907 C.3       1 <0>        -0.1200 
     10 C10        24.6429   77.1759   85.1186 C.3       1 <0>        -0.1200 
     11 C11        26.2037   79.4962   84.2798 C.3       1 <0>        -0.0500 
     12 C12        26.1196   77.4027   85.5190 C.3       1 <0>        -0.0500 
     13 C13        23.5259   79.2684   86.0685 C.3       1 <0>         0.1400 
     14 C14        20.3652   76.9697   81.3487 C.3       1 <0>         0.3050 
     15 C15        28.8783   75.5655   83.2456 C.2       1 <0>        -0.1150 
     16 C16        28.4978   76.5526   84.0789 C.2       1 <0>        -0.1717 
     17 C17        29.7820   74.4552   83.5792 C.ar      1 <0>         0.0000 
     18 C18        20.8025   77.5403   82.6845 C.ar      1 <0>        -0.1150 
     19 C19        21.5907   78.5360   85.1874 C.ar      1 <0>         0.0850 
     20 C20        22.5396   78.2278   84.2275 C.ar      1 <0>        -0.1150 
     21 C21        27.7022   77.6634   83.5798 C.2       1 <0>         0.5567 
     22 C22        23.9113   78.4966   84.7718 C.3       1 <0>         0.1150 
     23 N1         20.5370   77.9399   80.2582 N.4       1 <0>        -0.3000 
     24 N2         26.8007   78.1664   84.4608 N.am      1 <0>        -0.1400 
     25 O1         27.8867   78.1752   82.4736 O.2       1 <0>        -0.5000 
     26 O2         22.1375   79.0298   86.3343 O.3       1 <0>        -0.2850 
     27 H1         32.3036   71.5412   84.2347 H         1 <0>         0.1150 
     28 H2         32.4020   73.6122   85.6187 H         1 <0>         0.1150 
     29 H3         30.5438   71.2911   82.5005 H         1 <0>         0.1150 
     30 H4         30.8219   75.4660   85.1947 H         1 <0>         0.1150 
     31 H5         28.9486   73.1354   82.0753 H         1 <0>         0.1150 
     32 H6         18.7865   77.6996   83.4749 H         1 <0>         0.1150 
     33 H7         19.4851   78.5878   85.6855 H         1 <0>         0.1150 
     34 H8         22.9315   77.4960   82.2248 H         1 <0>         0.1150 
     35 H9         24.2994   80.3270   83.6432 H         1 <0>         0.0600 
     36 H10        24.7742   78.8706   82.8079 H         1 <0>         0.0600 
     37 H11        24.6127   76.5209   84.2474 H         1 <0>         0.0600 
     38 H12        24.1162   76.6444   85.9135 H         1 <0>         0.0600 
     39 H13        26.2284   80.0336   85.2288 H         1 <0>         0.0600 
     40 H14        26.7698   80.1142   83.5798 H         1 <0>         0.0600 
     41 H15        26.5772   76.4349   85.7205 H         1 <0>         0.0600 
     42 H16        26.1837   77.9561   86.4567 H         1 <0>         0.0600 
     43 H17        24.1384   78.9990   86.9291 H         1 <0>         0.0300 
     44 H18        23.6376   80.3407   85.9240 H         1 <0>         0.0300 
     45 H19        20.9369   76.0691   81.1311 H         1 <0>         0.0600 
     46 H20        19.3189   76.6699   81.3916 H         1 <0>         0.0600 
     47 H21        28.5371   75.5852   82.2202 H         1 <0>         0.1150 
     48 H22        28.8083   76.5461   85.1133 H         1 <0>         0.1150 
     49 H23        20.1897   77.5600   79.3791 H         1 <0>         0.3300 
     50 H24        19.9978   78.7798   80.4632 H         1 <0>         0.3300 
     51 H25        21.5165   78.1776   80.1564 H         1 <0>         0.3300 
@<TRIPOS>BOND
     1    1    2 ar   
     2    1    3 ar   
     3    1   27 1    
     4    2    4 ar   
     5    2   28 1    
     6    3    5 ar   
     7    3   29 1    
     8    4   17 ar   
     9    4   30 1    
    10    5   17 ar   
    11    5   31 1    
    12    6    7 ar   
    13    6   18 ar   
    14    6   32 1    
    15    7   19 ar   
    16    7   33 1    
    17    8   18 ar   
    18    8   20 ar   
    19    8   34 1    
    20    9   11 1    
    21    9   22 1    
    22    9   35 1    
    23    9   36 1    
    24   10   12 1    
    25   10   22 1    
    26   10   37 1    
    27   10   38 1    
    28   11   24 1    
    29   11   39 1    
    30   11   40 1    
    31   12   24 1    
    32   12   41 1    
    33   12   42 1    
    34   13   22 1    
    35   13   26 1    
    36   13   43 1    
    37   13   44 1    
    38   14   18 1    
    39   14   23 1    
    40   14   45 1    
    41   14   46 1    
    42   15   16 2    
    43   15   17 1    
    44   15   47 1    
    45   16   21 1    
    46   16   48 1    
    47   19   20 ar   
    48   19   26 1    
    49   20   22 1    
    50   21   24 am   BACKBONE|DICT|INTERRES
    51   21   25 2    
    52   23   49 1    
    53   23   50 1    
    54   23   51 1    
@<TRIPOS>SUBSTRUCTURE
     1 <0>         1 GROUP             0       ****    0 ROOT    
