@<TRIPOS>MOLECULE
tysy-ligand
59   63    1
SMALL
USER_CHARGES


@<TRIPOS>ATOM
      1 C1         11.7767   20.5210   31.9722 C.3       1 <0>        -0.1800 
      2 C2         16.5431   14.5087   30.1855 C.ar      1 <0>        -0.1150 
      3 C3         14.5145   15.6186   29.5272 C.ar      1 <0>        -0.1150 
      4 C4         17.7006   14.4133   30.9739 C.ar      1 <0>        -0.1150 
      5 C5         17.5077   14.6260   34.8710 C.ar      1 <0>        -0.1150 
      6 C6         16.4136   14.1770   35.6392 C.ar      1 <0>        -0.1150 
      7 C7         13.5774   16.6485   29.6696 C.ar      1 <0>        -0.1150 
      8 C8         17.1159   16.5203   32.0460 C.ar      1 <0>        -0.1150 
      9 C9         18.3298   12.3266   34.5905 C.ar      1 <0>        -0.1150 
     10 C10        16.8607   10.5256   35.8338 C.3       1 <0>         0.0650 
     11 C11        14.0730    9.9623   38.4082 C.3       1 <0>        -0.1200 
     12 C12        13.5223    8.7731   39.2178 C.3       1 <0>        -0.2200 
     13 C13        19.2964   15.3495   32.6896 C.3       1 <0>         0.1950 
     14 C14        12.8344   19.4713   31.7032 C.ar      1 <0>         0.4815 
     15 C15        15.6568   15.5923   30.3430 C.ar      1 <0>         0.0000 
     16 C16        18.0078   15.4345   31.8834 C.ar      1 <0>        -0.1150 
     17 C17        18.4437   13.7083   34.3105 C.ar      1 <0>         0.2000 
     18 C18        16.3070   12.7970   35.8562 C.ar      1 <0>        -0.1150 
     19 C19        13.7560   17.6431   30.6424 C.ar      1 <0>         0.0308 
     20 C20        17.2463   11.9056   35.3818 C.ar      1 <0>        -0.1150 
     21 C21        15.9018   16.6120   31.3067 C.ar      1 <0>         0.0000 
     22 C22        14.9160   17.6434   31.4783 C.ar      1 <0>        -0.1150 
     23 C23        14.9779   18.7400   32.5301 C.ar      1 <0>         0.6150 
     24 C24        15.2474   12.0685   36.5827 C.2       1 <0>         0.6150 
     25 C25        14.8711    9.6105   37.1226 C.3       1 <0>        -0.0900 
     26 C26        13.3091    9.1662   40.6827 C.2       1 <0>         0.7000 
     27 C27        14.1041    8.8730   36.0105 C.2       1 <0>         0.7000 
     28 N1         13.9098   19.5577   32.5824 N.pl3     1 <0>        -0.4225 
     29 N2         12.7295   18.5956   30.7579 N.2       1 <0>        -0.3898 
     30 N3         19.4812   14.1288   33.4678 N.pl3     1 <0>        -0.7800 
     31 N4         15.6069   10.7610   36.5786 N.am      1 <0>        -0.1400 
     32 O1         14.3340    9.3175   41.3824 O.co2     1 <0>        -0.8000 
     33 O2         14.6793    7.9118   35.4497 O.co2     1 <0>        -0.8000 
     34 O3         15.9108   18.8905   33.3141 O.2       1 <0>        -0.5000 
     35 O4         14.2560   12.6078   37.0717 O.2       1 <0>        -0.5000 
     36 O5         12.1373    9.3205   41.0925 O.co2     1 <0>        -0.8000 
     37 O6         12.9775    9.3165   35.6975 O.co2     1 <0>        -0.8000 
     38 H1         11.5770   21.0931   31.0679 H         1 <0>         0.0600 
     39 H2         10.8497   20.0402   32.2817 H         1 <0>         0.0600 
     40 H3         12.0758   21.2139   32.7589 H         1 <0>         0.0600 
     41 H4         16.3302   13.7281   29.4685 H         1 <0>         0.1150 
     42 H5         14.3450   14.8434   28.7919 H         1 <0>         0.1150 
     43 H6         18.3641   13.5677   30.8584 H         1 <0>         0.1150 
     44 H7         17.6012   15.6866   34.6962 H         1 <0>         0.1150 
     45 H8         15.6844   14.8691   36.0384 H         1 <0>         0.1150 
     46 H9         12.6977   16.6646   29.0428 H         1 <0>         0.1150 
     47 H10        17.4045   17.2603   32.7687 H         1 <0>         0.1150 
     48 H11        19.0417   11.6145   34.1949 H         1 <0>         0.1150 
     49 H12        17.6305   10.1188   36.4885 H         1 <0>         0.0600 
     50 H13        16.7152    9.8615   34.9806 H         1 <0>         0.0600 
     51 H14        13.2232   10.5992   38.1560 H         1 <0>         0.0600 
     52 H15        14.7204   10.5622   39.0482 H         1 <0>         0.0600 
     53 H16        14.2314    7.9442   39.2001 H         1 <0>         0.0600 
     54 H17        12.5927    8.4039   38.7814 H         1 <0>         0.0600 
     55 H18        19.3617   16.2066   33.3597 H         1 <0>         0.0600 
     56 H19        20.1332   15.4331   31.9964 H         1 <0>         0.0600 
     57 H20        15.6467    8.9156   37.4474 H         1 <0>         0.0600 
     58 H21        13.8623   20.2323   33.3372 H         1 <0>         0.3000 
     59 H22        20.0491   13.3956   33.0427 H         1 <0>         0.3800 
@<TRIPOS>BOND
     1    1   14 1    
     2    1   38 1    
     3    1   39 1    
     4    1   40 1    
     5    2    4 ar   
     6    2   15 ar   
     7    2   41 1    
     8    3    7 ar   
     9    3   15 ar   
    10    3   42 1    
    11    4   16 ar   
    12    4   43 1    
    13    5    6 ar   
    14    5   17 ar   
    15    5   44 1    
    16    6   18 ar   
    17    6   45 1    
    18    7   19 ar   
    19    7   46 1    
    20    8   16 ar   
    21    8   21 ar   
    22    8   47 1    
    23    9   17 ar   
    24    9   20 ar   
    25    9   48 1    
    26   10   20 1    
    27   10   31 1    
    28   10   49 1    
    29   10   50 1    
    30   11   12 1    
    31   11   25 1    
    32   11   51 1    
    33   11   52 1    
    34   12   26 1    
    35   12   53 1    
    36   12   54 1    
    37   13   16 1    
    38   13   30 1    
    39   13   55 1    
    40   13   56 1    
    41   14   28 ar   
    42   14   29 ar   
    43   15   21 ar   
    44   17   30 1    
    45   18   20 ar   
    46   18   24 1    
    47   19   22 ar   
    48   19   29 ar   
    49   21   22 ar   
    50   22   23 ar   
    51   23   28 ar   
    52   23   34 2    
    53   24   31 am   BACKBONE|DICT|INTERRES
    54   24   35 2    
    55   25   27 1    
    56   25   31 1    
    57   25   57 1    
    58   26   32 1    
    59   26   36 2    
    60   27   33 1    
    61   27   37 2    
    62   28   58 1    
    63   30   59 1    
@<TRIPOS>SUBSTRUCTURE
     1 <0>         1 GROUP             0       ****    0 ROOT    
@<TRIPOS>MOLECULE
tysy-ligand
59   63    1
SMALL
USER_CHARGES


@<TRIPOS>ATOM
      1 C1         11.6686   20.3963   32.1433 C.3       1 <0>        -0.1800 
      2 C2         16.6474   14.6005   30.2109 C.ar      1 <0>        -0.1150 
      3 C3         14.6757   15.7739   29.4688 C.ar      1 <0>        -0.1150 
      4 C4         17.7303   14.4400   31.0882 C.ar      1 <0>        -0.1150 
      5 C5         17.1527   14.3602   35.0852 C.ar      1 <0>        -0.1150 
      6 C6         16.0365   13.8673   35.7939 C.ar      1 <0>        -0.1150 
      7 C7         13.7163   16.7835   29.6260 C.ar      1 <0>        -0.1150 
      8 C8         16.9695   16.3806   32.3467 C.ar      1 <0>        -0.1150 
      9 C9         18.0561   12.0911   34.8240 C.ar      1 <0>        -0.1150 
     10 C10        16.5571   10.2198   35.9215 C.3       1 <0>         0.0650 
     11 C11        13.5963    9.4065   38.2755 C.3       1 <0>        -0.1200 
     12 C12        14.3531    9.9194   39.5235 C.3       1 <0>        -0.2200 
     13 C13        19.1122   15.2051   33.0732 C.3       1 <0>         0.1950 
     14 C14        12.7276   19.3503   31.8900 C.ar      1 <0>         0.4815 
     15 C15        15.7200   15.6463   30.3994 C.ar      1 <0>         0.0000 
     16 C16        17.9079   15.3442   32.1478 C.ar      1 <0>        -0.1150 
     17 C17        18.1450   13.4802   34.5661 C.ar      1 <0>         0.2000 
     18 C18        15.9603   12.4807   35.9924 C.ar      1 <0>        -0.1150 
     19 C19        13.7648   17.6467   30.7307 C.ar      1 <0>         0.0308 
     20 C20        16.9427   11.6247   35.5424 C.ar      1 <0>        -0.1150 
     21 C21        15.8358   16.5413   31.5014 C.ar      1 <0>         0.0000 
     22 C22        14.8164   17.5376   31.6890 C.ar      1 <0>        -0.1150 
     23 C23        14.7372   18.4862   32.8770 C.ar      1 <0>         0.6150 
     24 C24        14.8834   11.7090   36.6499 C.2       1 <0>         0.6150 
     25 C25        14.4905    9.2213   37.0135 C.3       1 <0>        -0.0900 
     26 C26        13.5028    9.9621   40.7961 C.2       1 <0>         0.7000 
     27 C27        13.7706    8.6530   35.7802 C.2       1 <0>         0.7000 
     28 N1         13.6765   19.3093   32.9041 N.pl3     1 <0>        -0.4225 
     29 N2         12.7330   18.5946   30.8411 N.2       1 <0>        -0.3898 
     30 N3         19.2182   13.9393   33.7890 N.pl3     1 <0>        -0.7800 
     31 N4         15.2695   10.4080   36.6280 N.am      1 <0>        -0.1400 
     32 O1         13.9283    9.3192   41.7806 O.co2     1 <0>        -0.8000 
     33 O2         12.7007    9.2047   35.4357 O.co2     1 <0>        -0.8000 
     34 O3         15.5598   18.5179   33.7824 O.2       1 <0>        -0.5000 
     35 O4         13.8503   12.2069   37.0970 O.2       1 <0>        -0.5000 
     36 O5         12.4620   10.6525   40.7994 O.co2     1 <0>        -0.8000 
     37 O6         14.3281    7.7182   35.1582 O.co2     1 <0>        -0.8000 
     38 H1         11.5272   21.0140   31.2578 H         1 <0>         0.0600 
     39 H2         10.7264   19.9056   32.3768 H         1 <0>         0.0600 
     40 H3         11.9276   21.0503   32.9770 H         1 <0>         0.0600 
     41 H4         16.5297   13.9096   29.3882 H         1 <0>         0.1150 
     42 H5         14.6048   15.1021   28.6259 H         1 <0>         0.1150 
     43 H6         18.4326   13.6301   30.9433 H         1 <0>         0.1150 
     44 H7         17.2256   15.4238   34.9306 H         1 <0>         0.1150 
     45 H8         15.2671   14.5312   36.1629 H         1 <0>         0.1150 
     46 H9         12.9195   16.8864   28.9031 H         1 <0>         0.1150 
     47 H10        17.1669   17.0353   33.1741 H         1 <0>         0.1150 
     48 H11        18.8029   11.4048   34.4499 H         1 <0>         0.1150 
     49 H12        17.2996    9.7676   36.5801 H         1 <0>         0.0600 
     50 H13        16.4435    9.6006   35.0301 H         1 <0>         0.0600 
     51 H14        13.1347    8.4470   38.5137 H         1 <0>         0.0600 
     52 H15        12.7655   10.0766   38.0499 H         1 <0>         0.0600 
     53 H16        14.7275   10.9259   39.3537 H         1 <0>         0.0600 
     54 H17        15.2269    9.2921   39.7021 H         1 <0>         0.0600 
     55 H18        19.1286   16.0229   33.7954 H         1 <0>         0.0600 
     56 H19        20.0095   15.3162   32.4644 H         1 <0>         0.0600 
     57 H20        15.2295    8.4651   37.2907 H         1 <0>         0.0600 
     58 H21        13.5433   19.9169   33.7133 H         1 <0>         0.3000 
     59 H22        19.8324   13.2353   33.3810 H         1 <0>         0.3800 
@<TRIPOS>BOND
     1    1   14 1    
     2    1   38 1    
     3    1   39 1    
     4    1   40 1    
     5    2    4 ar   
     6    2   15 ar   
     7    2   41 1    
     8    3    7 ar   
     9    3   15 ar   
    10    3   42 1    
    11    4   16 ar   
    12    4   43 1    
    13    5    6 ar   
    14    5   17 ar   
    15    5   44 1    
    16    6   18 ar   
    17    6   45 1    
    18    7   19 ar   
    19    7   46 1    
    20    8   16 ar   
    21    8   21 ar   
    22    8   47 1    
    23    9   17 ar   
    24    9   20 ar   
    25    9   48 1    
    26   10   20 1    
    27   10   31 1    
    28   10   49 1    
    29   10   50 1    
    30   11   12 1    
    31   11   25 1    
    32   11   51 1    
    33   11   52 1    
    34   12   26 1    
    35   12   53 1    
    36   12   54 1    
    37   13   16 1    
    38   13   30 1    
    39   13   55 1    
    40   13   56 1    
    41   14   28 ar   
    42   14   29 ar   
    43   15   21 ar   
    44   17   30 1    
    45   18   20 ar   
    46   18   24 1    
    47   19   22 ar   
    48   19   29 ar   
    49   21   22 ar   
    50   22   23 ar   
    51   23   28 ar   
    52   23   34 2    
    53   24   31 am   BACKBONE|DICT|INTERRES
    54   24   35 2    
    55   25   27 1    
    56   25   31 1    
    57   25   57 1    
    58   26   32 1    
    59   26   36 2    
    60   27   33 1    
    61   27   37 2    
    62   28   58 1    
    63   30   59 1    
@<TRIPOS>SUBSTRUCTURE
     1 <0>         1 GROUP             0       ****    0 ROOT    
@<TRIPOS>MOLECULE
tysy-ligand
59   63    1
SMALL
USER_CHARGES


@<TRIPOS>ATOM
      1 C1         11.6728   20.5181   31.9242 C.3       1 <0>        -0.1800 
      2 C2         16.5015   14.5213   30.1914 C.ar      1 <0>        -0.1150 
      3 C3         14.4712   15.6276   29.5040 C.ar      1 <0>        -0.1150 
      4 C4         17.6446   14.4379   31.0022 C.ar      1 <0>        -0.1150 
      5 C5         17.2083   14.3932   34.8409 C.ar      1 <0>        -0.1150 
      6 C6         16.1255   13.8188   35.5400 C.ar      1 <0>        -0.1150 
      7 C7         13.5273   16.6530   29.6375 C.ar      1 <0>        -0.1150 
      8 C8         16.9784   16.4941   32.1226 C.ar      1 <0>        -0.1150 
      9 C9         18.3262   12.2115   34.6735 C.ar      1 <0>        -0.1150 
     10 C10        17.0240   10.2707   35.8842 C.3       1 <0>         0.0650 
     11 C11        14.0281    9.3022   38.2054 C.3       1 <0>        -0.1200 
     12 C12        14.5138   10.1200   39.4263 C.3       1 <0>        -0.2200 
     13 C13        19.1332   15.3614   32.8420 C.3       1 <0>         0.1950 
     14 C14        12.7307   19.4637   31.6752 C.ar      1 <0>         0.4815 
     15 C15        15.5938   15.5892   30.3498 C.ar      1 <0>         0.0000 
     16 C16        17.8913   15.4315   31.9631 C.ar      1 <0>        -0.1150 
     17 C17        18.2891   13.5929   34.3646 C.ar      1 <0>         0.2000 
     18 C18        16.1721   12.4384   35.7819 C.ar      1 <0>        -0.1150 
     19 C19        13.6748   17.6371   30.6266 C.ar      1 <0>         0.0308 
     20 C20        17.2494   11.6714   35.3967 C.ar      1 <0>        -0.1150 
     21 C21        15.7955   16.5935   31.3403 C.ar      1 <0>         0.0000 
     22 C22        14.8068   17.6260   31.4971 C.ar      1 <0>        -0.1150 
     23 C23        14.8426   18.7190   32.5556 C.ar      1 <0>         0.6150 
     24 C24        15.1581   11.5847   36.4411 C.2       1 <0>         0.6150 
     25 C25        15.1071    9.1141   37.1005 C.3       1 <0>        -0.0900 
     26 C26        13.6669    9.9210   40.6852 C.2       1 <0>         0.7000 
     27 C27        14.7343    8.1014   36.0015 C.2       1 <0>         0.7000 
     28 N1         13.7794   19.5391   32.5824 N.pl3     1 <0>        -0.4225 
     29 N2         12.6512   18.5951   30.7189 N.2       1 <0>        -0.3898 
     30 N3         19.3304   14.1190   33.5846 N.pl3     1 <0>        -0.7800 
     31 N4         15.7097   10.3518   36.5640 N.am      1 <0>        -0.1400 
     32 O1         13.9282    8.9180   41.3823 O.co2     1 <0>        -0.8000 
     33 O2         14.1307    8.5117   34.9855 O.co2     1 <0>        -0.8000 
     34 O3         15.7583   18.8706   33.3605 O.2       1 <0>        -0.5000 
     35 O4         14.0448   11.9797   36.7851 O.2       1 <0>        -0.5000 
     36 O5         12.8101   10.7880   40.9672 O.co2     1 <0>        -0.8000 
     37 O6         15.1201    6.9235   36.1824 O.co2     1 <0>        -0.8000 
     38 H1         11.5172   21.1151   31.0263 H         1 <0>         0.0600 
     39 H2         10.7299   20.0391   32.1831 H         1 <0>         0.0600 
     40 H3         11.9444   21.1877   32.7411 H         1 <0>         0.0600 
     41 H4         16.3277   13.7562   29.4474 H         1 <0>         0.1150 
     42 H5         14.3283   14.8658   28.7513 H         1 <0>         0.1150 
     43 H6         18.3308   13.6099   30.8873 H         1 <0>         0.1150 
     44 H7         17.1776   15.4548   34.6514 H         1 <0>         0.1150 
     45 H8         15.2891   14.4187   35.8683 H         1 <0>         0.1150 
     46 H9         12.6691   16.6812   28.9832 H         1 <0>         0.1150 
     47 H10        17.2253   17.2119   32.8826 H         1 <0>         0.1150 
     48 H11        19.1475   11.5868   34.3507 H         1 <0>         0.1150 
     49 H12        17.8125    9.9954   36.5803 H         1 <0>         0.0600 
     50 H13        17.0127    9.5725   35.0470 H         1 <0>         0.0600 
     51 H14        13.7143    8.3154   38.5456 H         1 <0>         0.0600 
     52 H15        13.1332    9.7597   37.7853 H         1 <0>         0.0600 
     53 H16        14.5526   11.1843   39.2012 H         1 <0>         0.0600 
     54 H17        15.5314    9.8218   39.6742 H         1 <0>         0.0600 
     55 H18        19.1285   16.1884   33.5527 H         1 <0>         0.0600 
     56 H19        19.9998   15.5085   32.1996 H         1 <0>         0.0600 
     57 H20        15.9284    8.6317   37.6270 H         1 <0>         0.0600 
     58 H21        13.7158   20.2127   33.3400 H         1 <0>         0.3000 
     59 H22        19.9844   13.4448   33.1883 H         1 <0>         0.3800 
@<TRIPOS>BOND
     1    1   14 1    
     2    1   38 1    
     3    1   39 1    
     4    1   40 1    
     5    2    4 ar   
     6    2   15 ar   
     7    2   41 1    
     8    3    7 ar   
     9    3   15 ar   
    10    3   42 1    
    11    4   16 ar   
    12    4   43 1    
    13    5    6 ar   
    14    5   17 ar   
    15    5   44 1    
    16    6   18 ar   
    17    6   45 1    
    18    7   19 ar   
    19    7   46 1    
    20    8   16 ar   
    21    8   21 ar   
    22    8   47 1    
    23    9   17 ar   
    24    9   20 ar   
    25    9   48 1    
    26   10   20 1    
    27   10   31 1    
    28   10   49 1    
    29   10   50 1    
    30   11   12 1    
    31   11   25 1    
    32   11   51 1    
    33   11   52 1    
    34   12   26 1    
    35   12   53 1    
    36   12   54 1    
    37   13   16 1    
    38   13   30 1    
    39   13   55 1    
    40   13   56 1    
    41   14   28 ar   
    42   14   29 ar   
    43   15   21 ar   
    44   17   30 1    
    45   18   20 ar   
    46   18   24 1    
    47   19   22 ar   
    48   19   29 ar   
    49   21   22 ar   
    50   22   23 ar   
    51   23   28 ar   
    52   23   34 2    
    53   24   31 am   BACKBONE|DICT|INTERRES
    54   24   35 2    
    55   25   27 1    
    56   25   31 1    
    57   25   57 1    
    58   26   32 1    
    59   26   36 2    
    60   27   33 1    
    61   27   37 2    
    62   28   58 1    
    63   30   59 1    
@<TRIPOS>SUBSTRUCTURE
     1 <0>         1 GROUP             0       ****    0 ROOT    
@<TRIPOS>MOLECULE
tysy-ligand
59   63    1
SMALL
USER_CHARGES


@<TRIPOS>ATOM
      1 C1         11.6638   20.3620   32.1821 C.3       1 <0>        -0.1800 
      2 C2         16.6694   14.5731   30.2680 C.ar      1 <0>        -0.1150 
      3 C3         14.7327   15.7836   29.4972 C.ar      1 <0>        -0.1150 
      4 C4         17.7077   14.3610   31.1868 C.ar      1 <0>        -0.1150 
      5 C5         18.2635   11.7119   34.9726 C.ar      1 <0>        -0.1150 
      6 C6         17.3022   11.0618   35.7823 C.ar      1 <0>        -0.1150 
      7 C7         13.7736   16.7928   29.6512 C.ar      1 <0>        -0.1150 
      8 C8         16.8918   16.2383   32.5065 C.ar      1 <0>        -0.1150 
      9 C9         17.0133   13.8216   35.1104 C.ar      1 <0>        -0.1150 
     10 C10        14.8003   13.6691   36.5307 C.3       1 <0>         0.0650 
     11 C11        13.3669   13.2494   39.4822 C.3       1 <0>        -0.1200 
     12 C12        12.1164   13.4702   40.3706 C.3       1 <0>        -0.2200 
     13 C13        18.9831   15.0059   33.2796 C.3       1 <0>         0.1950 
     14 C14        12.7321   19.3173   31.9442 C.ar      1 <0>         0.4815 
     15 C15        15.7393   15.6138   30.4640 C.ar      1 <0>         0.0000 
     16 C16        17.8301   15.2027   32.3039 C.ar      1 <0>        -0.1150 
     17 C17        18.1284   13.0834   34.6263 C.ar      1 <0>         0.2000 
     18 C18        16.2098   11.8216   36.2329 C.ar      1 <0>        -0.1150 
     19 C19        13.7939   17.6270   30.7815 C.ar      1 <0>         0.0308 
     20 C20        16.0668   13.1515   35.9011 C.ar      1 <0>        -0.1150 
     21 C21        15.8118   16.4641   31.6060 C.ar      1 <0>         0.0000 
     22 C22        14.8076   17.4783   31.7755 C.ar      1 <0>        -0.1150 
     23 C23        14.7136   18.4206   32.9672 C.ar      1 <0>         0.6150 
     24 C24        15.0966   11.4083   37.1203 C.2       1 <0>         0.6150 
     25 C25        13.0882   12.5491   38.1216 C.3       1 <0>        -0.0900 
     26 C26        12.4283   14.0791   41.7394 C.2       1 <0>         0.7000 
     27 C27        11.8164   13.0007   37.3814 C.2       1 <0>         0.7000 
     28 N1         13.6582   19.2513   32.9823 N.pl3     1 <0>        -0.4225 
     29 N2         12.7677   18.5819   30.8793 N.2       1 <0>        -0.3898 
     30 N3         19.1276   13.6617   33.8269 N.pl3     1 <0>        -0.7800 
     31 N4         14.2926   12.4881   37.2693 N.am      1 <0>        -0.1400 
     32 O1         12.7282   15.2918   41.8003 O.co2     1 <0>        -0.8000 
     33 O2         10.8352   12.2234   37.4111 O.co2     1 <0>        -0.8000 
     34 O3         15.5282   18.4482   33.8797 O.2       1 <0>        -0.5000 
     35 O4         14.9722   10.2880   37.6170 O.2       1 <0>        -0.5000 
     36 O5         12.3311   13.3183   42.7248 O.co2     1 <0>        -0.8000 
     37 O6         11.8306   14.1181   36.8218 O.co2     1 <0>        -0.8000 
     38 H1         11.4980   20.9464   31.2775 H         1 <0>         0.0600 
     39 H2         10.7281   19.8748   32.4536 H         1 <0>         0.0600 
     40 H3         11.9349   21.0502   32.9814 H         1 <0>         0.0600 
     41 H4         16.5902   13.9267   29.4062 H         1 <0>         0.1150 
     42 H5         14.6920   15.1383   28.6313 H         1 <0>         0.1150 
     43 H6         18.4139   13.5579   31.0276 H         1 <0>         0.1150 
     44 H7         19.1163   11.1523   34.6149 H         1 <0>         0.1150 
     45 H8         17.4112   10.0238   36.0595 H         1 <0>         0.1150 
     46 H9         13.0061   16.9193   28.9002 H         1 <0>         0.1150 
     47 H10        17.0480   16.8393   33.3824 H         1 <0>         0.1150 
     48 H11        16.8718   14.8687   34.8965 H         1 <0>         0.1150 
     49 H12        14.1110   13.9920   35.7501 H         1 <0>         0.0600 
     50 H13        15.0102   14.5057   37.1986 H         1 <0>         0.0600 
     51 H14        13.8398   14.2152   39.3004 H         1 <0>         0.0600 
     52 H15        14.1002   12.6606   40.0342 H         1 <0>         0.0600 
     53 H16        11.6122   12.5158   40.5232 H         1 <0>         0.0600 
     54 H17        11.3913   14.1173   39.8786 H         1 <0>         0.0600 
     55 H18        18.9083   15.7197   34.1016 H         1 <0>         0.0600 
     56 H19        19.9060   15.2450   32.7533 H         1 <0>         0.0600 
     57 H20        12.8588   11.5165   38.3952 H         1 <0>         0.0600 
     58 H21        13.5276   19.8506   33.8044 H         1 <0>         0.3000 
     59 H22        19.8358   13.0514   33.4190 H         1 <0>         0.3800 
@<TRIPOS>BOND
     1    1   14 1    
     2    1   38 1    
     3    1   39 1    
     4    1   40 1    
     5    2    4 ar   
     6    2   15 ar   
     7    2   41 1    
     8    3    7 ar   
     9    3   15 ar   
    10    3   42 1    
    11    4   16 ar   
    12    4   43 1    
    13    5    6 ar   
    14    5   17 ar   
    15    5   44 1    
    16    6   18 ar   
    17    6   45 1    
    18    7   19 ar   
    19    7   46 1    
    20    8   16 ar   
    21    8   21 ar   
    22    8   47 1    
    23    9   17 ar   
    24    9   20 ar   
    25    9   48 1    
    26   10   20 1    
    27   10   31 1    
    28   10   49 1    
    29   10   50 1    
    30   11   12 1    
    31   11   25 1    
    32   11   51 1    
    33   11   52 1    
    34   12   26 1    
    35   12   53 1    
    36   12   54 1    
    37   13   16 1    
    38   13   30 1    
    39   13   55 1    
    40   13   56 1    
    41   14   28 ar   
    42   14   29 ar   
    43   15   21 ar   
    44   17   30 1    
    45   18   20 ar   
    46   18   24 1    
    47   19   22 ar   
    48   19   29 ar   
    49   21   22 ar   
    50   22   23 ar   
    51   23   28 ar   
    52   23   34 2    
    53   24   31 am   BACKBONE|DICT|INTERRES
    54   24   35 2    
    55   25   27 1    
    56   25   31 1    
    57   25   57 1    
    58   26   32 1    
    59   26   36 2    
    60   27   33 1    
    61   27   37 2    
    62   28   58 1    
    63   30   59 1    
@<TRIPOS>SUBSTRUCTURE
     1 <0>         1 GROUP             0       ****    0 ROOT    
