@<TRIPOS>MOLECULE
urok-ligand
45   47    1
SMALL
USER_CHARGES


@<TRIPOS>ATOM
      1 C1         25.4449   15.1632   33.6047 C.3       1 <0>         0.1100 
      2 C2         25.2468   17.6748   39.3059 C.3       1 <0>        -0.5305 
      3 C3         19.4133   17.0188   32.3525 C.ar      1 <0>        -0.1060 
      4 C4         21.4538   15.7350   32.3497 C.ar      1 <0>        -0.1150 
      5 C5         18.6770   18.1463   32.7412 C.ar      1 <0>        -0.0900 
      6 C6         22.7829   15.5499   32.7464 C.ar      1 <0>        -0.1150 
      7 C7         20.5843   18.9647   33.9864 C.ar      1 <0>        -0.0900 
      8 C8         24.5227   19.3690   34.5353 C.3       1 <0>         0.0025 
      9 C9         23.9829   17.9296   36.3631 C.3       1 <0>         0.0588 
     10 C10        20.7385   16.8574   32.7909 C.ar      1 <0>         0.0990 
     11 C11        19.2457   19.1351   33.5750 C.ar      1 <0>        -0.1190 
     12 C12        23.4126   16.4729   33.6144 C.ar      1 <0>         0.0850 
     13 C13        21.3467   17.8169   33.6421 C.ar      1 <0>         0.0680 
     14 C14        22.6859   17.6005   34.0973 C.ar      1 <0>        -0.1150 
     15 C15        23.3754   18.5527   35.0949 C.3       1 <0>         0.0917 
     16 C16        18.4143   20.2884   33.9868 C.2       1 <0>         0.8270 
     17 N1         17.1162   20.1641   33.9870 N.pl3     1 <0>        -0.8850 
     18 N2         18.8094   21.5055   34.3380 N.pl3     1 <0>        -0.8850 
     19 N3         25.2490   19.7630   35.7279 N.3       1 <0>        -0.3325 
     20 N4         25.0831   18.8246   36.7743 N.pl3     1 <0>        -0.2955 
     21 O1         26.5453   19.9310   38.5784 O.2       1 <0>        -0.4680 
     22 O2         24.0099   20.0352   38.7873 O.2       1 <0>        -0.4680 
     23 O3         24.7303   16.3254   33.9999 O.3       1 <0>        -0.2850 
     24 S1         25.2284   19.2932   38.4270 S.o2      1 <0>         0.9349 
     25 H1         26.4415   15.1918   34.0449 H         1 <0>         0.0300 
     26 H2         24.9578   14.2539   33.9589 H         1 <0>         0.0300 
     27 H3         25.5646   15.1165   32.5214 H         1 <0>         0.0300 
     28 H4         25.4574   17.8332   40.3631 H         1 <0>         0.1950 
     29 H5         24.2752   17.1923   39.1996 H         1 <0>         0.1950 
     30 H6         26.0224   17.0459   38.8658 H         1 <0>         0.1950 
     31 H7         18.9555   16.2861   31.7034 H         1 <0>         0.1410 
     32 H8         20.9942   15.0161   31.6859 H         1 <0>         0.1150 
     33 H9         17.6647   18.2371   32.3731 H         1 <0>         0.1290 
     34 H10        23.2998   14.6857   32.3599 H         1 <0>         0.1150 
     35 H11        21.0247   19.7641   34.5323 H         1 <0>         0.1290 
     36 H12        25.1811   18.7644   33.9120 H         1 <0>         0.0600 
     37 H13        24.1972   20.2361   33.9622 H         1 <0>         0.0600 
     38 H14        23.2308   17.8400   37.1465 H         1 <0>         0.0733 
     39 H15        24.4009   16.9364   36.2219 H         1 <0>         0.0733 
     40 H16        22.6704   19.2693   35.5013 H         1 <0>         0.0600 
     41 H17        16.5198   20.8787   34.4157 H         1 <0>         0.4455 
     42 H18        16.8096   19.1968   33.9244 H         1 <0>         0.4455 
     43 H19        19.7684   21.6078   34.6917 H         1 <0>         0.4455 
     44 H20        18.1027   22.1642   34.6511 H         1 <0>         0.4455 
     45 H21        24.9142   20.6670   36.0533 H         1 <0>         0.2100 
@<TRIPOS>BOND
     1    1   23 1    
     2    1   25 1    
     3    1   26 1    
     4    1   27 1    
     5    2   24 1    
     6    2   28 1    
     7    2   29 1    
     8    2   30 1    
     9    3    5 ar   
    10    3   10 ar   
    11    3   31 1    
    12    4    6 ar   
    13    4   10 ar   
    14    4   32 1    
    15    5   11 ar   
    16    5   33 1    
    17    6   12 ar   
    18    6   34 1    
    19    7   11 ar   
    20    7   13 ar   
    21    7   35 1    
    22    8   15 1    
    23    8   19 1    
    24    8   36 1    
    25    8   37 1    
    26    9   15 1    
    27    9   20 1    
    28    9   38 1    
    29    9   39 1    
    30   10   13 ar   
    31   11   16 1    
    32   12   14 ar   
    33   12   23 1    
    34   13   14 ar   
    35   14   15 1    
    36   15   40 1    
    37   16   17 1    
    38   16   18 2    
    39   17   41 1    
    40   17   42 1    
    41   18   43 1    
    42   18   44 1    
    43   19   20 1    
    44   19   45 1    
    45   20   24 1    
    46   21   24 2    
    47   22   24 2    
@<TRIPOS>SUBSTRUCTURE
     1 <0>         1 GROUP             0       ****    0 ROOT    
@<TRIPOS>MOLECULE
urok-ligand
45   47    1
SMALL
USER_CHARGES


@<TRIPOS>ATOM
      1 C1         25.3427   15.0488   33.8326 C.3       1 <0>         0.1100 
      2 C2         25.3995   17.9200   39.3487 C.3       1 <0>        -0.5305 
      3 C3         19.3971   16.9881   32.3240 C.ar      1 <0>        -0.1060 
      4 C4         21.4164   15.6788   32.4177 C.ar      1 <0>        -0.1150 
      5 C5         18.6637   18.1349   32.6586 C.ar      1 <0>        -0.0900 
      6 C6         22.7241   15.4726   32.8702 C.ar      1 <0>        -0.1150 
      7 C7         20.5544   18.9635   33.9305 C.ar      1 <0>        -0.0900 
      8 C8         24.4752   19.3284   34.5052 C.3       1 <0>         0.0025 
      9 C9         23.9455   17.9991   36.4193 C.3       1 <0>         0.0588 
     10 C10        20.7073   16.8220   32.8072 C.ar      1 <0>         0.0990 
     11 C11        19.2314   19.1393   33.4711 C.ar      1 <0>        -0.1190 
     12 C12        23.3437   16.4053   33.7347 C.ar      1 <0>         0.0850 
     13 C13        21.3077   17.7930   33.6508 C.ar      1 <0>         0.0680 
     14 C14        22.6290   17.5651   34.1571 C.ar      1 <0>        -0.1150 
     15 C15        23.3257   18.5535   35.1181 C.3       1 <0>         0.0917 
     16 C16        18.4094   20.3128   33.8300 C.2       1 <0>         0.8270 
     17 N1         18.8094   21.5720   33.9869 N.pl3     1 <0>        -0.8850 
     18 N2         17.1221   20.1639   33.9869 N.pl3     1 <0>        -0.8850 
     19 N3         25.2177   19.7824   35.6648 N.3       1 <0>        -0.3325 
     20 N4         25.0536   18.9137   36.7680 N.pl3     1 <0>        -0.2955 
     21 O1         26.5288   20.1915   38.4488 O.2       1 <0>        -0.4680 
     22 O2         24.0094   20.1639   38.7868 O.2       1 <0>        -0.4680 
     23 O3         24.6455   16.2414   34.1636 O.3       1 <0>        -0.2850 
     24 S1         25.2457   19.4763   38.3906 S.o2      1 <0>         0.9349 
     25 H1         26.3243   15.0665   34.3059 H         1 <0>         0.0300 
     26 H2         24.8194   14.1641   34.1976 H         1 <0>         0.0300 
     27 H3         25.4983   14.9631   32.7565 H         1 <0>         0.0300 
     28 H4         25.6100   18.1642   40.3896 H         1 <0>         0.1950 
     29 H5         24.4667   17.3622   39.2854 H         1 <0>         0.1950 
     30 H6         26.2162   17.3292   38.9349 H         1 <0>         0.1950 
     31 H7         18.9480   16.2417   31.6847 H         1 <0>         0.1410 
     32 H8         20.9650   14.9639   31.7463 H         1 <0>         0.1150 
     33 H9         17.6598   18.2345   32.2696 H         1 <0>         0.1290 
     34 H10        23.2356   14.5885   32.5229 H         1 <0>         0.1150 
     35 H11        20.9878   19.7639   34.4773 H         1 <0>         0.1290 
     36 H12        25.1228   18.6821   33.9128 H         1 <0>         0.0600 
     37 H13        24.1548   20.1639   33.8832 H         1 <0>         0.0600 
     38 H14        23.2093   17.9576   37.2208 H         1 <0>         0.0733 
     39 H15        24.3589   16.9979   36.3340 H         1 <0>         0.0733 
     40 H16        22.6235   19.2929   35.4874 H         1 <0>         0.0600 
     41 H17        18.1267   22.2757   34.2441 H         1 <0>         0.4455 
     42 H18        19.7830   21.7351   34.2282 H         1 <0>         0.4455 
     43 H19        16.8094   19.1950   34.0037 H         1 <0>         0.4455 
     44 H20        16.5639   20.8964   34.4377 H         1 <0>         0.4455 
     45 H21        24.8992   20.7095   35.9369 H         1 <0>         0.2100 
@<TRIPOS>BOND
     1    1   23 1    
     2    1   25 1    
     3    1   26 1    
     4    1   27 1    
     5    2   24 1    
     6    2   28 1    
     7    2   29 1    
     8    2   30 1    
     9    3    5 ar   
    10    3   10 ar   
    11    3   31 1    
    12    4    6 ar   
    13    4   10 ar   
    14    4   32 1    
    15    5   11 ar   
    16    5   33 1    
    17    6   12 ar   
    18    6   34 1    
    19    7   11 ar   
    20    7   13 ar   
    21    7   35 1    
    22    8   15 1    
    23    8   19 1    
    24    8   36 1    
    25    8   37 1    
    26    9   15 1    
    27    9   20 1    
    28    9   38 1    
    29    9   39 1    
    30   10   13 ar   
    31   11   16 1    
    32   12   14 ar   
    33   12   23 1    
    34   13   14 ar   
    35   14   15 1    
    36   15   40 1    
    37   16   17 1    
    38   16   18 2    
    39   17   41 1    
    40   17   42 1    
    41   18   43 1    
    42   18   44 1    
    43   19   20 1    
    44   19   45 1    
    45   20   24 1    
    46   21   24 2    
    47   22   24 2    
@<TRIPOS>SUBSTRUCTURE
     1 <0>         1 GROUP             0       ****    0 ROOT    
@<TRIPOS>MOLECULE
urok-ligand
45   47    1
SMALL
USER_CHARGES


@<TRIPOS>ATOM
      1 C1         25.7728   15.0785   34.1532 C.3       1 <0>         0.1100 
      2 C2         27.1420   18.7723   39.1650 C.3       1 <0>        -0.5305 
      3 C3         19.8749   16.8209   32.3058 C.ar      1 <0>        -0.1060 
      4 C4         21.9525   15.6294   32.4545 C.ar      1 <0>        -0.1150 
      5 C5         19.0454   17.8892   32.6631 C.ar      1 <0>        -0.0900 
      6 C6         23.2373   15.4676   32.9791 C.ar      1 <0>        -0.1150 
      7 C7         20.7048   18.6401   34.2786 C.ar      1 <0>        -0.0900 
      8 C8         24.5649   19.2070   35.2280 C.3       1 <0>         0.0025 
      9 C9         23.9930   17.5513   36.8664 C.3       1 <0>         0.0588 
     10 C10        21.1370   16.6777   32.9046 C.ar      1 <0>         0.0990 
     11 C11        19.4536   18.8219   33.6413 C.ar      1 <0>        -0.1190 
     12 C12        23.7204   16.3413   33.9799 C.ar      1 <0>         0.0850 
     13 C13        21.5811   17.5754   33.9154 C.ar      1 <0>         0.0680 
     14 C14        22.8819   17.3796   34.4875 C.ar      1 <0>        -0.1150 
     15 C15        23.4321   18.2692   35.6210 C.3       1 <0>         0.0917 
     16 C16        18.5272   19.9254   33.9619 C.2       1 <0>         0.8270 
     17 N1         17.2423   19.7640   33.7879 N.pl3     1 <0>        -0.8850 
     18 N2         18.8094   21.1507   34.3868 N.pl3     1 <0>        -0.8850 
     19 N3         25.2095   19.5078   36.4968 N.3       1 <0>        -0.3325 
     20 N4         25.0247   18.4444   37.4094 N.pl3     1 <0>        -0.2955 
     21 O1         24.6739   19.7598   39.5871 O.2       1 <0>        -0.4680 
     22 O2         25.0076   17.2280   39.6909 O.2       1 <0>        -0.4680 
     23 O3         25.0098   16.2355   34.4623 O.3       1 <0>        -0.2850 
     24 S1         25.3273   18.5383   39.1009 S.o2      1 <0>         0.9349 
     25 H1         26.7074   15.1075   34.7139 H         1 <0>         0.0300 
     26 H2         25.2473   14.1663   34.4399 H         1 <0>         0.0300 
     27 H3         26.0261   15.0376   33.0942 H         1 <0>         0.0300 
     28 H4         27.4522   18.8486   40.2059 H         1 <0>         0.1950 
     29 H5         27.6300   17.9204   38.6953 H         1 <0>         0.1950 
     30 H6         27.4093   19.6848   38.6346 H         1 <0>         0.1950 
     31 H7         19.5483   16.1326   31.5386 H         1 <0>         0.1410 
     32 H8         21.6093   14.9619   31.6768 H         1 <0>         0.1150 
     33 H9         18.0979   17.9890   32.1523 H         1 <0>         0.1290 
     34 H10        23.8432   14.6711   32.5752 H         1 <0>         0.1150 
     35 H11        20.9743   19.3633   35.0259 H         1 <0>         0.1290 
     36 H12        25.2901   18.7069   34.5867 H         1 <0>         0.0600 
     37 H13        24.2263   20.1123   34.7235 H         1 <0>         0.0600 
     38 H14        23.2110   17.3644   37.6029 H         1 <0>         0.0733 
     39 H15        24.4784   16.5984   36.6682 H         1 <0>         0.0733 
     40 H16        22.6478   18.9016   36.0222 H         1 <0>         0.0600 
     41 H17        16.6077   20.5124   34.0528 H         1 <0>         0.4455 
     42 H18        16.8737   18.7980   33.7289 H         1 <0>         0.4455 
     43 H19        19.7566   21.3552   34.7376 H         1 <0>         0.4455 
     44 H20        18.0551   21.7655   34.6781 H         1 <0>         0.4455 
     45 H21        24.8052   20.3498   36.9007 H         1 <0>         0.2100 
@<TRIPOS>BOND
     1    1   23 1    
     2    1   25 1    
     3    1   26 1    
     4    1   27 1    
     5    2   24 1    
     6    2   28 1    
     7    2   29 1    
     8    2   30 1    
     9    3    5 ar   
    10    3   10 ar   
    11    3   31 1    
    12    4    6 ar   
    13    4   10 ar   
    14    4   32 1    
    15    5   11 ar   
    16    5   33 1    
    17    6   12 ar   
    18    6   34 1    
    19    7   11 ar   
    20    7   13 ar   
    21    7   35 1    
    22    8   15 1    
    23    8   19 1    
    24    8   36 1    
    25    8   37 1    
    26    9   15 1    
    27    9   20 1    
    28    9   38 1    
    29    9   39 1    
    30   10   13 ar   
    31   11   16 1    
    32   12   14 ar   
    33   12   23 1    
    34   13   14 ar   
    35   14   15 1    
    36   15   40 1    
    37   16   17 1    
    38   16   18 2    
    39   17   41 1    
    40   17   42 1    
    41   18   43 1    
    42   18   44 1    
    43   19   20 1    
    44   19   45 1    
    45   20   24 1    
    46   21   24 2    
    47   22   24 2    
@<TRIPOS>SUBSTRUCTURE
     1 <0>         1 GROUP             0       ****    0 ROOT    
@<TRIPOS>MOLECULE
urok-ligand
45   47    1
SMALL
USER_CHARGES


@<TRIPOS>ATOM
      1 C1         27.6817   16.8251   34.0924 C.3       1 <0>         0.1100 
      2 C2         26.6482   19.4128   39.4519 C.3       1 <0>        -0.5305 
      3 C3         22.0652   15.4488   31.2720 C.ar      1 <0>        -0.1060 
      4 C4         24.4267   15.5624   31.7215 C.ar      1 <0>        -0.1150 
      5 C5         20.7362   15.7639   31.5872 C.ar      1 <0>        -0.0900 
      6 C6         25.5093   15.9882   32.4978 C.ar      1 <0>        -0.1150 
      7 C7         21.5095   16.9603   33.5782 C.ar      1 <0>        -0.0900 
      8 C8         24.4480   19.3517   35.2794 C.3       1 <0>         0.0025 
      9 C9         24.4165   17.3544   36.6284 C.3       1 <0>         0.0588 
     10 C10        23.1168   15.8959   32.0970 C.ar      1 <0>         0.0990 
     11 C11        20.4598   16.5235   32.7369 C.ar      1 <0>        -0.1190 
     12 C12        25.3022   16.7599   33.6647 C.ar      1 <0>         0.0850 
     13 C13        22.8672   16.6662   33.2700 C.ar      1 <0>         0.0680 
     14 C14        23.9774   17.1082   34.0644 C.ar      1 <0>        -0.1150 
     15 C15        23.8186   17.9629   35.3429 C.3       1 <0>         0.0917 
     16 C16        19.0753   16.8484   33.0466 C.2       1 <0>         0.8270 
     17 N1         18.4094   16.1800   33.9868 N.pl3     1 <0>        -0.8850 
     18 N2         18.4094   17.8011   32.3869 N.pl3     1 <0>        -0.8850 
     19 N3         24.8472   19.6221   36.6508 N.3       1 <0>        -0.3325 
     20 N4         25.1165   18.4251   37.3479 N.pl3     1 <0>        -0.2955 
     21 O1         23.9945   18.9855   39.5869 O.2       1 <0>        -0.4680 
     22 O2         25.5331   16.9648   39.4571 O.2       1 <0>        -0.4680 
     23 O3         26.3568   17.2000   34.4411 O.3       1 <0>        -0.2850 
     24 S1         25.2092   18.3473   39.0700 S.o2      1 <0>         0.9349 
     25 H1         28.3737   17.2382   34.8260 H         1 <0>         0.0300 
     26 H2         27.8053   15.7412   34.0990 H         1 <0>         0.0300 
     27 H3         27.9648   17.2191   33.1155 H         1 <0>         0.0300 
     28 H4         26.7987   19.4306   40.5311 H         1 <0>         0.1950 
     29 H5         27.5336   19.0060   38.9656 H         1 <0>         0.1950 
     30 H6         26.4585   20.4216   39.0902 H         1 <0>         0.1950 
     31 H7         22.2699   14.8749   30.3790 H         1 <0>         0.1410 
     32 H8         24.6115   14.9808   30.8295 H         1 <0>         0.1150 
     33 H9         19.9395   15.4248   30.9389 H         1 <0>         0.1290 
     34 H10        26.4976   15.7102   32.1651 H         1 <0>         0.1150 
     35 H11        21.2288   17.5407   34.4414 H         1 <0>         0.1290 
     36 H12        25.3419   19.3679   34.6576 H         1 <0>         0.0600 
     37 H13        23.7648   20.1155   34.9058 H         1 <0>         0.0600 
     38 H14        23.6227   16.9640   37.2647 H         1 <0>         0.0733 
     39 H15        25.1182   16.5418   36.4487 H         1 <0>         0.0733 
     40 H16        22.7736   18.1361   35.5758 H         1 <0>         0.0600 
     41 H17        17.4583   16.4613   34.1943 H         1 <0>         0.4455 
     42 H18        18.8362   15.4491   34.5467 H         1 <0>         0.4455 
     43 H19        18.8523   18.3381   31.6545 H         1 <0>         0.4455 
     44 H20        17.4567   18.0238   32.6599 H         1 <0>         0.4455 
     45 H21        24.0982   20.1132   37.1359 H         1 <0>         0.2100 
@<TRIPOS>BOND
     1    1   23 1    
     2    1   25 1    
     3    1   26 1    
     4    1   27 1    
     5    2   24 1    
     6    2   28 1    
     7    2   29 1    
     8    2   30 1    
     9    3    5 ar   
    10    3   10 ar   
    11    3   31 1    
    12    4    6 ar   
    13    4   10 ar   
    14    4   32 1    
    15    5   11 ar   
    16    5   33 1    
    17    6   12 ar   
    18    6   34 1    
    19    7   11 ar   
    20    7   13 ar   
    21    7   35 1    
    22    8   15 1    
    23    8   19 1    
    24    8   36 1    
    25    8   37 1    
    26    9   15 1    
    27    9   20 1    
    28    9   38 1    
    29    9   39 1    
    30   10   13 ar   
    31   11   16 1    
    32   12   14 ar   
    33   12   23 1    
    34   13   14 ar   
    35   14   15 1    
    36   15   40 1    
    37   16   17 1    
    38   16   18 2    
    39   17   41 1    
    40   17   42 1    
    41   18   43 1    
    42   18   44 1    
    43   19   20 1    
    44   19   45 1    
    45   20   24 1    
    46   21   24 2    
    47   22   24 2    
@<TRIPOS>SUBSTRUCTURE
     1 <0>         1 GROUP             0       ****    0 ROOT    
@<TRIPOS>MOLECULE
urok-ligand
45   47    1
SMALL
USER_CHARGES


@<TRIPOS>ATOM
      1 C1         24.0719   18.4403   30.7171 C.3       1 <0>         0.1100 
      2 C2         18.3078   16.1684   33.8680 C.3       1 <0>        -0.5305 
      3 C3         27.1493   19.3497   36.2952 C.ar      1 <0>        -0.1060 
      4 C4         26.6174   19.3985   33.9454 C.ar      1 <0>        -0.1150 
      5 C5         26.8272   19.0392   37.6253 C.ar      1 <0>        -0.0900 
      6 C6         25.7552   19.1337   32.8761 C.ar      1 <0>        -0.1150 
      7 C7         24.6376   18.2515   36.8906 C.ar      1 <0>        -0.0900 
      8 C8         22.8379   16.0215   34.0567 C.3       1 <0>         0.0025 
      9 C9         21.4947   18.0376   33.9312 C.3       1 <0>         0.0588 
     10 C10        26.2297   19.0923   35.2596 C.ar      1 <0>         0.0990 
     11 C11        25.5650   18.4978   37.9361 C.ar      1 <0>        -0.1190 
     12 C12        24.5031   18.5187   33.0996 C.ar      1 <0>         0.0850 
     13 C13        24.9576   18.5195   35.5286 C.ar      1 <0>         0.0680 
     14 C14        24.0867   18.2126   34.4304 C.ar      1 <0>        -0.1150 
     15 C15        22.7585   17.4467   34.6060 C.3       1 <0>         0.0917 
     16 C16        25.2390   18.1635   39.3293 C.2       1 <0>         0.8270 
     17 N1         24.4097   17.1503   39.5997 N.pl3     1 <0>        -0.8850 
     18 N2         25.7647   18.8404   40.3656 N.pl3     1 <0>        -0.8850 
     19 N3         21.4993   15.7415   33.5855 N.3       1 <0>        -0.3325 
     20 N4         20.8794   16.9319   33.1725 N.pl3     1 <0>        -0.2955 
     21 O1         18.8635   18.4223   32.5151 O.2       1 <0>        -0.4680 
     22 O2         19.2101   16.1642   31.3624 O.2       1 <0>        -0.4680 
     23 O3         23.6729   18.1641   32.0532 O.3       1 <0>        -0.2850 
     24 S1         19.2643   17.0084   32.5648 S.o2      1 <0>         0.9349 
     25 H1         23.3038   18.0750   30.0385 H         1 <0>         0.0300 
     26 H2         24.1834   19.5121   30.5462 H         1 <0>         0.0300 
     27 H3         25.0031   17.9314   30.4637 H         1 <0>         0.0300 
     28 H4         17.2589   16.1638   33.5842 H         1 <0>         0.1950 
     29 H5         18.6544   15.1450   33.9848 H         1 <0>         0.1950 
     30 H6         18.4197   16.7317   34.7869 H         1 <0>         0.1950 
     31 H7         28.1233   19.7623   36.0725 H         1 <0>         0.1410 
     32 H8         27.5888   19.8220   33.7437 H         1 <0>         0.1150 
     33 H9         27.5649   19.2178   38.3946 H         1 <0>         0.1290 
     34 H10        26.1020   19.3769   31.8838 H         1 <0>         0.1150 
     35 H11        23.6814   17.8470   37.1699 H         1 <0>         0.1290 
     36 H12        23.5102   15.9617   33.2023 H         1 <0>         0.0600 
     37 H13        23.1687   15.2843   34.7868 H         1 <0>         0.0600 
     38 H14        20.7934   18.4033   34.6835 H         1 <0>         0.0733 
     39 H15        21.6941   18.8750   33.2625 H         1 <0>         0.0733 
     40 H16        22.4840   17.3511   35.6502 H         1 <0>         0.0600 
     41 H17        24.0379   17.0172   40.5297 H         1 <0>         0.4455 
     42 H18        24.0547   16.5947   38.8333 H         1 <0>         0.4455 
     43 H19        26.3865   19.6153   40.1845 H         1 <0>         0.4455 
     44 H20        25.6099   18.5641   41.3391 H         1 <0>         0.4455 
     45 H21        20.9442   15.3268   34.3325 H         1 <0>         0.2100 
@<TRIPOS>BOND
     1    1   23 1    
     2    1   25 1    
     3    1   26 1    
     4    1   27 1    
     5    2   24 1    
     6    2   28 1    
     7    2   29 1    
     8    2   30 1    
     9    3    5 ar   
    10    3   10 ar   
    11    3   31 1    
    12    4    6 ar   
    13    4   10 ar   
    14    4   32 1    
    15    5   11 ar   
    16    5   33 1    
    17    6   12 ar   
    18    6   34 1    
    19    7   11 ar   
    20    7   13 ar   
    21    7   35 1    
    22    8   15 1    
    23    8   19 1    
    24    8   36 1    
    25    8   37 1    
    26    9   15 1    
    27    9   20 1    
    28    9   38 1    
    29    9   39 1    
    30   10   13 ar   
    31   11   16 1    
    32   12   14 ar   
    33   12   23 1    
    34   13   14 ar   
    35   14   15 1    
    36   15   40 1    
    37   16   17 1    
    38   16   18 2    
    39   17   41 1    
    40   17   42 1    
    41   18   43 1    
    42   18   44 1    
    43   19   20 1    
    44   19   45 1    
    45   20   24 1    
    46   21   24 2    
    47   22   24 2    
@<TRIPOS>SUBSTRUCTURE
     1 <0>         1 GROUP             0       ****    0 ROOT    
