@<TRIPOS>MOLECULE
vgfr2-ligand
50   53    1
SMALL
USER_CHARGES


@<TRIPOS>ATOM
      1 C1         38.1782   44.3981   11.4219 C.ar      1 <0>        -0.1150 
      2 C2         38.9610   43.7618   12.4028 C.ar      1 <0>        -0.1150 
      3 C3         37.9502   43.7607   10.1873 C.ar      1 <0>        -0.1150 
      4 C4         33.9463   32.8739   12.7943 C.ar      1 <0>        -0.4470 
      5 C5         39.5270   42.4973   12.1500 C.ar      1 <0>        -0.1150 
      6 C6         38.4864   42.4820    9.9414 C.ar      1 <0>        -0.1150 
      7 C7         34.8958   33.8017   12.3392 C.ar      1 <0>         0.2270 
      8 C8         37.1703   38.4519   12.3468 C.ar      1 <0>        -0.1150 
      9 C9         38.4996   37.1159   10.8071 C.ar      1 <0>        -0.1150 
     10 C10        37.9104   39.5939   11.9964 C.ar      1 <0>        -0.1150 
     11 C11        39.2398   38.2617   10.4534 C.ar      1 <0>        -0.1150 
     12 C12        37.7920   30.2428   13.0538 C.ar      1 <0>        -0.4470 
     13 C13        39.9082   29.9804   14.1651 C.ar      1 <0>        -0.4470 
     14 C14        34.3142   32.0186   13.8428 C.ar      1 <0>         0.4730 
     15 C15        37.9143   28.9094   12.6183 C.ar      1 <0>         0.4730 
     16 C16        39.9358   28.6552   13.6906 C.ar      1 <0>         0.4730 
     17 C17        38.8346   32.2633   14.3159 C.3       1 <0>         0.1950 
     18 C18        38.8075   30.8048   13.8554 C.ar      1 <0>         0.1770 
     19 C19        37.4822   37.2008   11.7862 C.ar      1 <0>         0.0850 
     20 C20        39.2679   41.8442   10.9269 C.ar      1 <0>         0.0850 
     21 C21        38.9645   39.5068   11.0534 C.ar      1 <0>         0.0850 
     22 C22        36.1782   33.8500   12.9306 C.ar      1 <0>        -0.4070 
     23 C23        36.4452   32.9486   14.0007 C.ar      1 <0>         0.5384 
     24 C24        37.1865   34.8239   12.3888 C.2       1 <0>         0.6150 
     25 N1         38.9657   28.1225   12.9229 N.ar      1 <0>        -0.6780 
     26 N2         35.5250   32.0574   14.4309 N.ar      1 <0>        -0.6780 
     27 N3         37.6241   32.9611   14.7603 N.pl3     1 <0>        -0.6334 
     28 N4         36.7364   36.0803   12.2336 N.am      1 <0>        -0.3850 
     29 O1         38.3355   34.4680   12.1259 O.2       1 <0>        -0.5000 
     30 O2         39.7524   40.5825   10.7081 O.3       1 <0>        -0.1700 
     31 H1         37.7636   45.3770   11.6112 H         1 <0>         0.1150 
     32 H2         39.1350   44.2507   13.3495 H         1 <0>         0.1150 
     33 H3         37.3718   44.2554    9.4242 H         1 <0>         0.1150 
     34 H4         32.9638   32.8167   12.3510 H         1 <0>         0.1550 
     35 H5         40.1207   42.0132   12.9129 H         1 <0>         0.1150 
     36 H6         38.2962   41.9875    8.9993 H         1 <0>         0.1150 
     37 H7         34.6366   34.4657   11.5265 H         1 <0>         0.0650 
     38 H8         36.3840   38.5342   13.0844 H         1 <0>         0.1150 
     39 H9         38.7337   36.1764   10.3296 H         1 <0>         0.1150 
     40 H10        37.6620   40.5278   12.4778 H         1 <0>         0.1150 
     41 H11        40.0324   38.1796    9.7243 H         1 <0>         0.1150 
     42 H12        36.9348   30.8091   12.7398 H         1 <0>         0.1550 
     43 H13        40.7368   30.3645   14.7393 H         1 <0>         0.1550 
     44 H14        33.6171   31.2859   14.2226 H         1 <0>         0.0120 
     45 H15        37.1494   28.4664   11.9978 H         1 <0>         0.0120 
     46 H16        40.7741   28.0125   13.9140 H         1 <0>         0.0120 
     47 H17        39.3257   32.8420   13.5398 H         1 <0>         0.0600 
     48 H18        39.5172   32.3127   15.1658 H         1 <0>         0.0600 
     49 H19        37.8561   33.9089   15.0531 H         1 <0>         0.3800 
     50 H20        35.8306   36.2928   12.6706 H         1 <0>         0.3000 
@<TRIPOS>BOND
     1    1    2 ar   
     2    1    3 ar   
     3    1   31 1    
     4    2    5 ar   
     5    2   32 1    
     6    3    6 ar   
     7    3   33 1    
     8    4    7 ar   
     9    4   14 ar   
    10    4   34 1    
    11    5   20 ar   
    12    5   35 1    
    13    6   20 ar   
    14    6   36 1    
    15    7   22 ar   
    16    7   37 1    
    17    8   10 ar   
    18    8   19 ar   
    19    8   38 1    
    20    9   11 ar   
    21    9   19 ar   
    22    9   39 1    
    23   10   21 ar   
    24   10   40 1    
    25   11   21 ar   
    26   11   41 1    
    27   12   15 ar   
    28   12   18 ar   
    29   12   42 1    
    30   13   16 ar   
    31   13   18 ar   
    32   13   43 1    
    33   14   26 ar   
    34   14   44 1    
    35   15   25 ar   
    36   15   45 1    
    37   16   25 ar   
    38   16   46 1    
    39   17   18 1    
    40   17   27 1    
    41   17   47 1    
    42   17   48 1    
    43   19   28 1    
    44   20   30 1    
    45   21   30 1    
    46   22   23 ar   
    47   22   24 1    
    48   23   26 ar   
    49   23   27 1    
    50   24   28 am   BACKBONE|DICT|INTERRES
    51   24   29 2    
    52   27   49 1    
    53   28   50 1    
@<TRIPOS>SUBSTRUCTURE
     1 <0>         1 GROUP             0       ****    0 ROOT    
@<TRIPOS>MOLECULE
vgfr2-ligand
50   53    1
SMALL
USER_CHARGES


@<TRIPOS>ATOM
      1 C1         39.2487   44.1707   11.1340 C.ar      1 <0>        -0.1150 
      2 C2         40.3358   43.3097   10.9020 C.ar      1 <0>        -0.1150 
      3 C3         37.9472   43.7672   10.7856 C.ar      1 <0>        -0.1150 
      4 C4         34.0493   32.7062   12.9199 C.ar      1 <0>        -0.4470 
      5 C5         40.1189   42.0283   10.3647 C.ar      1 <0>        -0.1150 
      6 C6         37.7339   42.4970   10.2164 C.ar      1 <0>        -0.1150 
      7 C7         34.9589   33.6668   12.4493 C.ar      1 <0>         0.2270 
      8 C8         38.3361   36.8991   10.5683 C.ar      1 <0>        -0.1150 
      9 C9         37.0748   38.3054   12.1040 C.ar      1 <0>        -0.1150 
     10 C10        38.7649   38.0466    9.8781 C.ar      1 <0>        -0.1150 
     11 C11        37.4932   39.4498   11.4066 C.ar      1 <0>        -0.1150 
     12 C12        37.9366   29.9302   12.7395 C.ar      1 <0>        -0.4470 
     13 C13        39.9359   29.5755   14.0328 C.ar      1 <0>        -0.4470 
     14 C14        34.5028   31.7709   13.8624 C.ar      1 <0>         0.4730 
     15 C15        38.0127   28.5800   12.3463 C.ar      1 <0>         0.4730 
     16 C16        39.9357   28.2442   13.5736 C.ar      1 <0>         0.4730 
     17 C17        39.0178   31.9355   13.9408 C.3       1 <0>         0.1950 
     18 C18        38.9238   30.4527   13.5970 C.ar      1 <0>         0.1770 
     19 C19        37.4660   37.0228   11.6782 C.ar      1 <0>         0.0850 
     20 C20        38.8200   41.6200   10.0225 C.ar      1 <0>         0.0850 
     21 C21        38.3221   39.3246   10.2691 C.ar      1 <0>         0.0850 
     22 C22        36.2886   33.6610   12.9276 C.ar      1 <0>        -0.4070 
     23 C23        36.6456   32.6786   13.8960 C.ar      1 <0>         0.5384 
     24 C24        37.2610   34.6375   12.3362 C.2       1 <0>         0.6150 
     25 N1         38.9992   27.7490   12.7394 N.ar      1 <0>        -0.6780 
     26 N2         35.7625   31.7610   14.3398 N.ar      1 <0>        -0.6780 
     27 N3         37.8867   32.6406   14.5487 N.pl3     1 <0>        -0.6334 
     28 N4         36.8670   35.9202   12.3395 N.am      1 <0>        -0.3850 
     29 O1         38.3374   34.2496   11.8934 O.2       1 <0>        -0.5000 
     30 O2         38.6378   40.3882    9.4602 O.3       1 <0>        -0.1700 
     31 H1         39.4175   45.1513   11.5542 H         1 <0>         0.1150 
     32 H2         41.3396   43.6303   11.1392 H         1 <0>         0.1150 
     33 H3         37.1195   44.4389   10.9493 H         1 <0>         0.1150 
     34 H4         33.0315   32.6822   12.5625 H         1 <0>         0.1550 
     35 H5         40.9493   41.3610   10.1909 H         1 <0>         0.1150 
     36 H6         36.7378   42.1866    9.9397 H         1 <0>         0.1150 
     37 H7         34.6376   34.3876   11.7107 H         1 <0>         0.0650 
     38 H8         38.6420   35.9366   10.1895 H         1 <0>         0.1150 
     39 H9         36.3970   38.4146   12.9403 H         1 <0>         0.1150 
     40 H10        39.3898   37.9398    9.0035 H         1 <0>         0.1150 
     41 H11        37.1266   40.4104   11.7332 H         1 <0>         0.1150 
     42 H12        37.1485   30.5536   12.3538 H         1 <0>         0.1550 
     43 H13        40.7291   29.9261   14.6760 H         1 <0>         0.1550 
     44 H14        33.8370   31.0125   14.2481 H         1 <0>         0.0120 
     45 H15        37.2745   28.1631   11.6768 H         1 <0>         0.0120 
     46 H16        40.7146   27.5603   13.8769 H         1 <0>         0.0120 
     47 H17        39.3166   32.4391   13.0277 H         1 <0>         0.0600 
     48 H18        39.8584   32.0695   14.6214 H         1 <0>         0.0600 
     49 H19        38.1669   33.5762   14.8142 H         1 <0>         0.3800 
     50 H20        36.0256   36.1493   12.8741 H         1 <0>         0.3000 
@<TRIPOS>BOND
     1    1    2 ar   
     2    1    3 ar   
     3    1   31 1    
     4    2    5 ar   
     5    2   32 1    
     6    3    6 ar   
     7    3   33 1    
     8    4    7 ar   
     9    4   14 ar   
    10    4   34 1    
    11    5   20 ar   
    12    5   35 1    
    13    6   20 ar   
    14    6   36 1    
    15    7   22 ar   
    16    7   37 1    
    17    8   10 ar   
    18    8   19 ar   
    19    8   38 1    
    20    9   11 ar   
    21    9   19 ar   
    22    9   39 1    
    23   10   21 ar   
    24   10   40 1    
    25   11   21 ar   
    26   11   41 1    
    27   12   15 ar   
    28   12   18 ar   
    29   12   42 1    
    30   13   16 ar   
    31   13   18 ar   
    32   13   43 1    
    33   14   26 ar   
    34   14   44 1    
    35   15   25 ar   
    36   15   45 1    
    37   16   25 ar   
    38   16   46 1    
    39   17   18 1    
    40   17   27 1    
    41   17   47 1    
    42   17   48 1    
    43   19   28 1    
    44   20   30 1    
    45   21   30 1    
    46   22   23 ar   
    47   22   24 1    
    48   23   26 ar   
    49   23   27 1    
    50   24   28 am   BACKBONE|DICT|INTERRES
    51   24   29 2    
    52   27   49 1    
    53   28   50 1    
@<TRIPOS>SUBSTRUCTURE
     1 <0>         1 GROUP             0       ****    0 ROOT    
@<TRIPOS>MOLECULE
vgfr2-ligand
50   53    1
SMALL
USER_CHARGES


@<TRIPOS>ATOM
      1 C1         38.3759   44.1179   11.7461 C.ar      1 <0>        -0.1150 
      2 C2         39.0628   43.2177   12.5838 C.ar      1 <0>        -0.1150 
      3 C3         38.0851   43.7590   10.4155 C.ar      1 <0>        -0.1150 
      4 C4         34.0407   32.6167   12.9041 C.ar      1 <0>        -0.4470 
      5 C5         39.4611   41.9599   12.0902 C.ar      1 <0>        -0.1150 
      6 C6         38.4832   42.5013    9.9220 C.ar      1 <0>        -0.1150 
      7 C7         34.9361   33.5458   12.3463 C.ar      1 <0>         0.2270 
      8 C8         37.3931   38.3026   12.4420 C.ar      1 <0>        -0.1150 
      9 C9         38.3590   36.8956   10.7018 C.ar      1 <0>        -0.1150 
     10 C10        38.0796   39.4155   11.9189 C.ar      1 <0>        -0.1150 
     11 C11        39.0449   38.0092   10.1805 C.ar      1 <0>        -0.1150 
     12 C12        38.9129   30.1416   12.0580 C.ar      1 <0>        -0.4470 
     13 C13        39.7089   29.9508   14.3382 C.ar      1 <0>        -0.4470 
     14 C14        34.5193   31.7468   13.8976 C.ar      1 <0>         0.4730 
     15 C15        39.0640   28.7456   11.9474 C.ar      1 <0>         0.4730 
     16 C16        39.8244   28.5638   14.1236 C.ar      1 <0>         0.4730 
     17 C17        39.0952   32.2590   13.4503 C.3       1 <0>         0.1950 
     18 C18        39.2394   30.7592   13.2815 C.ar      1 <0>         0.1770 
     19 C19        37.5376   37.0281   11.8411 C.ar      1 <0>         0.0850 
     20 C20        39.1784   41.5998   10.7572 C.ar      1 <0>         0.0850 
     21 C21        38.9041   39.2750   10.7863 C.ar      1 <0>         0.0850 
     22 C22        36.2757   33.5861   12.7986 C.ar      1 <0>        -0.4070 
     23 C23        36.6641   32.6519   13.8014 C.ar      1 <0>         0.5384 
     24 C24        37.2391   34.5708   12.1855 C.2       1 <0>         0.6150 
     25 N1         39.5094   27.9663   12.9551 N.ar      1 <0>        -0.6780 
     26 N2         35.7935   31.7621   14.3359 N.ar      1 <0>        -0.6780 
     27 N3         37.9758   32.6326   14.3019 N.pl3     1 <0>        -0.6334 
     28 N4         36.8656   35.8604   12.2944 N.am      1 <0>        -0.3850 
     29 O1         38.2825   34.1830   11.6595 O.2       1 <0>        -0.5000 
     30 O2         39.5681   40.3692   10.2952 O.3       1 <0>        -0.1700 
     31 H1         38.0699   45.0822   12.1247 H         1 <0>         0.1150 
     32 H2         39.2833   43.4913   13.6052 H         1 <0>         0.1150 
     33 H3         37.5556   44.4476    9.7736 H         1 <0>         0.1150 
     34 H4         33.0129   32.5684   12.5758 H         1 <0>         0.1550 
     35 H5         39.9867   41.2702   12.7343 H         1 <0>         0.1150 
     36 H6         38.2559   42.2287    8.9018 H         1 <0>         0.1150 
     37 H7         34.5896   34.2162   11.5731 H         1 <0>         0.0650 
     38 H8         36.7529   38.4567   13.2965 H         1 <0>         0.1150 
     39 H9         38.4739   35.9343   10.2226 H         1 <0>         0.1150 
     40 H10        37.9664   40.3835   12.3846 H         1 <0>         0.1150 
     41 H11        39.6773   37.8924    9.3127 H         1 <0>         0.1150 
     42 H12        38.5520   30.7201   11.2203 H         1 <0>         0.1550 
     43 H13        39.9797   30.3784   15.2928 H         1 <0>         0.1550 
     44 H14        33.8636   31.0182   14.3510 H         1 <0>         0.0120 
     45 H15        38.8208   28.2415   11.0238 H         1 <0>         0.0120 
     46 H16        40.1807   27.9170   14.9116 H         1 <0>         0.0120 
     47 H17        38.9688   32.7233   12.4715 H         1 <0>         0.0600 
     48 H18        40.0207   32.6491   13.8756 H         1 <0>         0.0600 
     49 H19        38.1796   33.1713   15.1327 H         1 <0>         0.3800 
     50 H20        35.9556   36.0179   12.7002 H         1 <0>         0.3000 
@<TRIPOS>BOND
     1    1    2 ar   
     2    1    3 ar   
     3    1   31 1    
     4    2    5 ar   
     5    2   32 1    
     6    3    6 ar   
     7    3   33 1    
     8    4    7 ar   
     9    4   14 ar   
    10    4   34 1    
    11    5   20 ar   
    12    5   35 1    
    13    6   20 ar   
    14    6   36 1    
    15    7   22 ar   
    16    7   37 1    
    17    8   10 ar   
    18    8   19 ar   
    19    8   38 1    
    20    9   11 ar   
    21    9   19 ar   
    22    9   39 1    
    23   10   21 ar   
    24   10   40 1    
    25   11   21 ar   
    26   11   41 1    
    27   12   15 ar   
    28   12   18 ar   
    29   12   42 1    
    30   13   16 ar   
    31   13   18 ar   
    32   13   43 1    
    33   14   26 ar   
    34   14   44 1    
    35   15   25 ar   
    36   15   45 1    
    37   16   25 ar   
    38   16   46 1    
    39   17   18 1    
    40   17   27 1    
    41   17   47 1    
    42   17   48 1    
    43   19   28 1    
    44   20   30 1    
    45   21   30 1    
    46   22   23 ar   
    47   22   24 1    
    48   23   26 ar   
    49   23   27 1    
    50   24   28 am   BACKBONE|DICT|INTERRES
    51   24   29 2    
    52   27   49 1    
    53   28   50 1    
@<TRIPOS>SUBSTRUCTURE
     1 <0>         1 GROUP             0       ****    0 ROOT    
