@<TRIPOS>MOLECULE
wee1-ligand
59   63    1
SMALL
USER_CHARGES


@<TRIPOS>ATOM
      1 C1          1.6314   53.1676   22.5624 C.3       1 <0>         0.0313 
      2 C2          2.3707   51.3940   18.8661 C.3       1 <0>         0.0900 
      3 C3          2.3323   51.2833   16.4151 C.3       1 <0>         0.0900 
      4 C4         -0.0275   51.6958   28.9850 C.ar      1 <0>        -0.1150 
      5 C5         -0.2489   52.5535   30.0712 C.ar      1 <0>        -0.1150 
      6 C6          0.9082   52.0453   27.9991 C.ar      1 <0>        -0.1150 
      7 C7          0.3714   53.8123   30.1085 C.ar      1 <0>        -0.1150 
      8 C8          6.2594   54.9018   23.3117 C.ar      1 <0>        -0.1150 
      9 C9          2.2171   53.4284   25.6320 C.ar      1 <0>        -0.1150 
     10 C10         4.3790   54.3530   21.2785 C.ar      1 <0>        -0.1150 
     11 C11         4.8642   53.3621   18.2927 C.3       1 <0>        -0.1200 
     12 C12         3.5460   53.1189   17.5311 C.3       1 <0>         0.1500 
     13 C13         5.1067   54.8636   18.5708 C.3       1 <0>         0.1400 
     14 C14         1.5870   53.2810   28.0464 C.ar      1 <0>         0.0000 
     15 C15         1.2523   54.1953   29.0823 C.ar      1 <0>         0.1800 
     16 C16         4.9745   54.4206   23.6617 C.ar      1 <0>        -0.0155 
     17 C17         2.5808   53.5672   26.9966 C.ar      1 <0>         0.0000 
     18 C18         3.1007   53.7372   24.5643 C.ar      1 <0>        -0.0235 
     19 C19         4.0328   54.1373   22.6182 C.ar      1 <0>        -0.0235 
     20 C20         6.5724   55.1707   21.9623 C.ar      1 <0>         0.1500 
     21 C21         5.6470   54.8787   20.9299 C.ar      1 <0>         0.0850 
     22 C22         4.3781   54.1693   24.8882 C.ar      1 <0>        -0.0155 
     23 C23         3.9187   53.9413   27.2457 C.ar      1 <0>        -0.1150 
     24 C24         4.7967   54.2534   26.2313 C.ar      1 <0>        -0.1150 
     25 C25         4.6601   54.0825   28.5275 C.2       1 <0>         0.6855 
     26 C26         6.0814   54.6385   26.8706 C.2       1 <0>         0.6855 
     27 N1          5.8916   54.4945   28.1920 N.am      1 <0>        -0.4817 
     28 N2          2.8368   53.6512   23.2061 N.pl3     1 <0>        -0.1333 
     29 N3          3.0915   51.7078   17.6115 N.4       1 <0>        -0.1000 
     30 O1          7.7980   55.6936   21.6566 O.3       1 <0>        -0.5850 
     31 O2          4.2223   53.8786   29.6564 O.2       1 <0>        -0.5080 
     32 O3          7.0899   55.0644   26.3250 O.2       1 <0>        -0.5080 
     33 O4          6.0452   55.0876   19.6219 O.3       1 <0>        -0.2850 
     34 Cl1         1.8840   55.8051   29.1201 Cl        1 <0>        -0.1800 
     35 H1          0.7649   53.7021   22.9481 H         1 <0>         0.0600 
     36 H2          1.6866   53.2942   21.4823 H         1 <0>         0.0600 
     37 H3          1.5087   52.1055   22.7785 H         1 <0>         0.0600 
     38 H4          1.4292   51.9429   18.9275 H         1 <0>         0.0600 
     39 H5          2.9695   51.6448   19.7413 H         1 <0>         0.0600 
     40 H6          2.1521   50.3273   18.9178 H         1 <0>         0.0600 
     41 H7          1.4103   51.8576   16.3093 H         1 <0>         0.0600 
     42 H8          2.9275   51.4151   15.5106 H         1 <0>         0.0600 
     43 H9          2.0736   50.2261   16.4798 H         1 <0>         0.0600 
     44 H10        -0.5692   50.7712   28.9221 H         1 <0>         0.1150 
     45 H11        -0.9258   52.2545   30.8566 H         1 <0>         0.1150 
     46 H12         1.1044   51.3476   27.1984 H         1 <0>         0.1150 
     47 H13         0.1533   54.4933   30.9183 H         1 <0>         0.1150 
     48 H14         7.0052   55.1269   24.0487 H         1 <0>         0.1150 
     49 H15         1.2162   53.1041   25.3906 H         1 <0>         0.1150 
     50 H16         3.6306   54.1239   20.5374 H         1 <0>         0.1150 
     51 H17         4.8536   52.8050   19.2277 H         1 <0>         0.0600 
     52 H18         5.7039   52.9446   17.7342 H         1 <0>         0.0600 
     53 H19         3.7050   53.4079   16.4898 H         1 <0>         0.0600 
     54 H20         2.7503   53.7658   17.9088 H         1 <0>         0.0600 
     55 H21         5.4935   55.3354   17.6668 H         1 <0>         0.0300 
     56 H22         4.1785   55.3929   18.7951 H         1 <0>         0.0300 
     57 H23         6.6029   54.7456   28.8671 H         1 <0>         0.3567 
     58 H24         3.9294   51.1208   17.6376 H         1 <0>         0.2900 
     59 H25         8.4380   55.5633   22.3489 H         1 <0>         0.4350 
@<TRIPOS>BOND
     1    1   28 1    
     2    1   35 1    
     3    1   36 1    
     4    1   37 1    
     5    2   29 1    
     6    2   38 1    
     7    2   39 1    
     8    2   40 1    
     9    3   29 1    
    10    3   41 1    
    11    3   42 1    
    12    3   43 1    
    13    4    5 ar   
    14    4    6 ar   
    15    4   44 1    
    16    5    7 ar   
    17    5   45 1    
    18    6   14 ar   
    19    6   46 1    
    20    7   15 ar   
    21    7   47 1    
    22    8   16 ar   
    23    8   20 ar   
    24    8   48 1    
    25    9   17 ar   
    26    9   18 ar   
    27    9   49 1    
    28   10   19 ar   
    29   10   21 ar   
    30   10   50 1    
    31   11   12 1    
    32   11   13 1    
    33   11   51 1    
    34   11   52 1    
    35   12   29 1    
    36   12   53 1    
    37   12   54 1    
    38   13   33 1    
    39   13   55 1    
    40   13   56 1    
    41   14   15 ar   
    42   14   17 1    
    43   15   34 1    
    44   16   19 ar   
    45   16   22 ar   
    46   17   23 ar   
    47   18   22 ar   
    48   18   28 ar   
    49   19   28 ar   
    50   20   21 ar   
    51   20   30 1    
    52   21   33 1    
    53   22   24 ar   
    54   23   24 ar   
    55   23   25 1    
    56   24   26 1    
    57   25   27 am   BACKBONE|DICT|INTERRES
    58   25   31 2    
    59   26   27 am   BACKBONE|DICT|INTERRES
    60   26   32 2    
    61   27   57 1    
    62   29   58 1    
    63   30   59 1    
@<TRIPOS>SUBSTRUCTURE
     1 <0>         1 GROUP             0       ****    0 ROOT    
@<TRIPOS>MOLECULE
wee1-ligand
59   63    1
SMALL
USER_CHARGES


@<TRIPOS>ATOM
      1 C1          1.7028   53.1569   22.4393 C.3       1 <0>         0.0313 
      2 C2          7.0684   59.9467   15.6707 C.3       1 <0>         0.0900 
      3 C3          5.5357   58.0988   15.1842 C.3       1 <0>         0.0900 
      4 C4          0.0136   51.8320   29.0317 C.ar      1 <0>        -0.1150 
      5 C5         -0.2129   52.7576   30.0572 C.ar      1 <0>        -0.1150 
      6 C6          0.9315   52.1144   28.0078 C.ar      1 <0>        -0.1150 
      7 C7          0.3957   54.0213   29.9997 C.ar      1 <0>        -0.1150 
      8 C8          6.3037   54.9160   23.2523 C.ar      1 <0>        -0.1150 
      9 C9          2.2408   53.4384   25.5287 C.ar      1 <0>        -0.1150 
     10 C10         4.4706   54.3477   21.1855 C.ar      1 <0>        -0.1150 
     11 C11         5.9973   57.0000   17.9094 C.3       1 <0>        -0.1200 
     12 C12         6.8476   58.1408   17.3155 C.3       1 <0>         0.1500 
     13 C13         6.6132   56.4192   19.1893 C.3       1 <0>         0.1400 
     14 C14         1.5936   53.3586   27.9599 C.ar      1 <0>         0.0000 
     15 C15         1.2654   54.3366   28.9389 C.ar      1 <0>         0.1800 
     16 C16         5.0198   54.4222   23.5821 C.ar      1 <0>        -0.0155 
     17 C17         2.5892   53.5928   26.8964 C.ar      1 <0>         0.0000 
     18 C18         3.1398   53.7311   24.4654 C.ar      1 <0>        -0.0235 
     19 C19         4.1009   54.1220   22.5224 C.ar      1 <0>        -0.0235 
     20 C20         6.6357   55.2195   21.9148 C.ar      1 <0>         0.1500 
     21 C21         5.7010   54.9579   20.8723 C.ar      1 <0>         0.0850 
     22 C22         4.4122   54.1671   24.8032 C.ar      1 <0>        -0.0155 
     23 C23         3.9273   53.9547   27.1585 C.ar      1 <0>        -0.1150 
     24 C24         4.8157   54.2599   26.1522 C.ar      1 <0>        -0.1150 
     25 C25         4.6535   54.0917   28.4510 C.2       1 <0>         0.6855 
     26 C26         6.0897   54.6535   26.8102 C.2       1 <0>         0.6855 
     27 N1          5.8918   54.4944   28.1293 N.am      1 <0>        -0.4817 
     28 N2          2.8986   53.6347   23.0997 N.pl3     1 <0>        -0.1333 
     29 N3          6.1721   58.9174   16.2424 N.4       1 <0>        -0.1000 
     30 O1          7.8914   55.6945   21.6562 O.3       1 <0>        -0.5850 
     31 O2          4.1997   53.8974   29.5769 O.2       1 <0>        -0.5080 
     32 O3          7.0916   55.1078   26.2757 O.2       1 <0>        -0.5080 
     33 O4          5.9019   55.2378   19.5377 O.3       1 <0>        -0.2850 
     34 Cl1         1.8913   55.9457   28.8682 Cl        1 <0>        -0.1800 
     35 H1          0.8340   53.6944   22.8177 H         1 <0>         0.0600 
     36 H2          1.7753   53.2947   21.3608 H         1 <0>         0.0600 
     37 H3          1.5774   52.0941   22.6489 H         1 <0>         0.0600 
     38 H4          7.8913   59.4957   15.1156 H         1 <0>         0.0600 
     39 H5          7.4900   60.5740   16.4569 H         1 <0>         0.0600 
     40 H6          6.5176   60.6021   14.9965 H         1 <0>         0.0600 
     41 H7          6.2607   57.4367   14.7090 H         1 <0>         0.0600 
     42 H8          4.7224   57.4955   15.5847 H         1 <0>         0.0600 
     43 H9          5.1039   58.7363   14.4113 H         1 <0>         0.0600 
     44 H10        -0.5139   50.8947   29.0508 H         1 <0>         0.1150 
     45 H11        -0.8965   52.5080   30.8583 H         1 <0>         0.1150 
     46 H12         1.1304   51.3629   27.2569 H         1 <0>         0.1150 
     47 H13         0.1748   54.7584   30.7579 H         1 <0>         0.1150 
     48 H14         7.0453   55.1203   23.9989 H         1 <0>         0.1150 
     49 H15         1.2381   53.1209   25.2833 H         1 <0>         0.1150 
     50 H16         3.7733   54.1251   20.3914 H         1 <0>         0.1150 
     51 H17         4.9881   57.3485   18.1300 H         1 <0>         0.0600 
     52 H18         5.8954   56.1963   17.1791 H         1 <0>         0.0600 
     53 H19         7.7809   57.7255   16.9304 H         1 <0>         0.0600 
     54 H20         7.1180   58.8404   18.1090 H         1 <0>         0.0600 
     55 H21         7.6643   56.1670   19.0314 H         1 <0>         0.0300 
     56 H22         6.5578   57.1749   19.9776 H         1 <0>         0.0300 
     57 H23         6.5900   54.7469   28.8182 H         1 <0>         0.3567 
     58 H24         5.4394   59.4591   16.6874 H         1 <0>         0.2900 
     59 H25         8.5044   55.5086   22.3614 H         1 <0>         0.4350 
@<TRIPOS>BOND
     1    1   28 1    
     2    1   35 1    
     3    1   36 1    
     4    1   37 1    
     5    2   29 1    
     6    2   38 1    
     7    2   39 1    
     8    2   40 1    
     9    3   29 1    
    10    3   41 1    
    11    3   42 1    
    12    3   43 1    
    13    4    5 ar   
    14    4    6 ar   
    15    4   44 1    
    16    5    7 ar   
    17    5   45 1    
    18    6   14 ar   
    19    6   46 1    
    20    7   15 ar   
    21    7   47 1    
    22    8   16 ar   
    23    8   20 ar   
    24    8   48 1    
    25    9   17 ar   
    26    9   18 ar   
    27    9   49 1    
    28   10   19 ar   
    29   10   21 ar   
    30   10   50 1    
    31   11   12 1    
    32   11   13 1    
    33   11   51 1    
    34   11   52 1    
    35   12   29 1    
    36   12   53 1    
    37   12   54 1    
    38   13   33 1    
    39   13   55 1    
    40   13   56 1    
    41   14   15 ar   
    42   14   17 1    
    43   15   34 1    
    44   16   19 ar   
    45   16   22 ar   
    46   17   23 ar   
    47   18   22 ar   
    48   18   28 ar   
    49   19   28 ar   
    50   20   21 ar   
    51   20   30 1    
    52   21   33 1    
    53   22   24 ar   
    54   23   24 ar   
    55   23   25 1    
    56   24   26 1    
    57   25   27 am   BACKBONE|DICT|INTERRES
    58   25   31 2    
    59   26   27 am   BACKBONE|DICT|INTERRES
    60   26   32 2    
    61   27   57 1    
    62   29   58 1    
    63   30   59 1    
@<TRIPOS>SUBSTRUCTURE
     1 <0>         1 GROUP             0       ****    0 ROOT    
@<TRIPOS>MOLECULE
wee1-ligand
59   63    1
SMALL
USER_CHARGES


@<TRIPOS>ATOM
      1 C1          1.7524   53.1656   22.4414 C.3       1 <0>         0.0313 
      2 C2          1.1626   53.2325   17.3633 C.3       1 <0>         0.0900 
      3 C3          2.8876   51.9927   18.5688 C.3       1 <0>         0.0900 
      4 C4          0.0203   51.8319   29.0257 C.ar      1 <0>        -0.1150 
      5 C5         -0.1978   52.7538   30.0569 C.ar      1 <0>        -0.1150 
      6 C6          0.9350   52.1201   27.9989 C.ar      1 <0>        -0.1150 
      7 C7          0.4060   54.0189   30.0023 C.ar      1 <0>        -0.1150 
      8 C8          6.3153   55.0177   23.2930 C.ar      1 <0>        -0.1150 
      9 C9          2.2541   53.4705   25.5293 C.ar      1 <0>        -0.1150 
     10 C10         4.5452   54.3159   21.2094 C.ar      1 <0>        -0.1150 
     11 C11         4.4054   54.9420   17.9809 C.3       1 <0>        -0.1200 
     12 C12         3.5124   53.9659   17.1910 C.3       1 <0>         0.1500 
     13 C13         5.6738   54.2967   18.5713 C.3       1 <0>         0.1400 
     14 C14         1.5954   53.3659   27.9561 C.ar      1 <0>         0.0000 
     15 C15         1.2666   54.3403   28.9374 C.ar      1 <0>         0.1800 
     16 C16         5.0423   54.4873   23.6115 C.ar      1 <0>        -0.0155 
     17 C17         2.5934   53.6122   26.8994 C.ar      1 <0>         0.0000 
     18 C18         3.1603   53.7737   24.4757 C.ar      1 <0>        -0.0235 
     19 C19         4.1476   54.1452   22.5449 C.ar      1 <0>        -0.0235 
     20 C20         6.6670   55.2587   21.9486 C.ar      1 <0>         0.1500 
     21 C21         5.7993   54.8943   20.8957 C.ar      1 <0>         0.0850 
     22 C22         4.4239   54.2267   24.8243 C.ar      1 <0>        -0.0155 
     23 C23         3.9278   53.9775   27.1719 C.ar      1 <0>        -0.1150 
     24 C24         4.8174   54.3066   26.1752 C.ar      1 <0>        -0.1150 
     25 C25         4.6505   54.0899   28.4675 C.2       1 <0>         0.6855 
     26 C26         6.0904   54.6811   26.8423 C.2       1 <0>         0.6855 
     27 N1          5.8916   54.4946   28.1580 N.am      1 <0>        -0.4817 
     28 N2          2.9358   53.6653   23.1095 N.pl3     1 <0>        -0.1333 
     29 N3          2.4759   53.3146   18.0407 N.4       1 <0>        -0.1000 
     30 O1          7.8916   55.7841   21.6568 O.3       1 <0>        -0.5850 
     31 O2          4.1907   53.8789   29.5872 O.2       1 <0>        -0.5080 
     32 O3          7.0916   55.1428   26.3160 O.2       1 <0>        -0.5080 
     33 O4          6.2374   55.0992   19.6023 O.3       1 <0>        -0.2850 
     34 Cl1         1.8917   55.9497   28.8666 Cl        1 <0>        -0.1800 
     35 H1          0.8738   53.6953   22.8051 H         1 <0>         0.0600 
     36 H2          1.8331   53.2946   21.3634 H         1 <0>         0.0600 
     37 H3          1.6375   52.1036   22.6583 H         1 <0>         0.0600 
     38 H4          1.2221   52.6128   16.4676 H         1 <0>         0.0600 
     39 H5          0.8120   54.2243   17.0744 H         1 <0>         0.0600 
     40 H6          0.4113   52.8029   18.0267 H         1 <0>         0.0600 
     41 H7          3.0924   51.2954   17.7555 H         1 <0>         0.0600 
     42 H8          3.7765   52.0636   19.1905 H         1 <0>         0.0600 
     43 H9          2.1020   51.5604   19.1897 H         1 <0>         0.0600 
     44 H10        -0.5083   50.8946   29.0443 H         1 <0>         0.1150 
     45 H11        -0.8702   52.4985   30.8631 H         1 <0>         0.1150 
     46 H12         1.1331   51.3732   27.2437 H         1 <0>         0.1150 
     47 H13         0.1927   54.7510   30.7674 H         1 <0>         0.1150 
     48 H14         7.0265   55.2952   24.0455 H         1 <0>         0.1150 
     49 H15         1.2564   53.1449   25.2744 H         1 <0>         0.1150 
     50 H16         3.8497   54.0324   20.4414 H         1 <0>         0.1150 
     51 H17         4.7318   55.7411   17.3135 H         1 <0>         0.0600 
     52 H18         3.8180   55.4493   18.7462 H         1 <0>         0.0600 
     53 H19         4.1065   53.2253   16.6520 H         1 <0>         0.0600 
     54 H20         3.0134   54.5542   16.4193 H         1 <0>         0.0600 
     55 H21         5.5103   53.2827   18.9297 H         1 <0>         0.0300 
     56 H22         6.4196   54.1951   17.7823 H         1 <0>         0.0300 
     57 H23         6.5898   54.7313   28.8523 H         1 <0>         0.3567 
     58 H24         2.3249   53.9276   18.8342 H         1 <0>         0.2900 
     59 H25         8.5223   55.6400   22.3547 H         1 <0>         0.4350 
@<TRIPOS>BOND
     1    1   28 1    
     2    1   35 1    
     3    1   36 1    
     4    1   37 1    
     5    2   29 1    
     6    2   38 1    
     7    2   39 1    
     8    2   40 1    
     9    3   29 1    
    10    3   41 1    
    11    3   42 1    
    12    3   43 1    
    13    4    5 ar   
    14    4    6 ar   
    15    4   44 1    
    16    5    7 ar   
    17    5   45 1    
    18    6   14 ar   
    19    6   46 1    
    20    7   15 ar   
    21    7   47 1    
    22    8   16 ar   
    23    8   20 ar   
    24    8   48 1    
    25    9   17 ar   
    26    9   18 ar   
    27    9   49 1    
    28   10   19 ar   
    29   10   21 ar   
    30   10   50 1    
    31   11   12 1    
    32   11   13 1    
    33   11   51 1    
    34   11   52 1    
    35   12   29 1    
    36   12   53 1    
    37   12   54 1    
    38   13   33 1    
    39   13   55 1    
    40   13   56 1    
    41   14   15 ar   
    42   14   17 1    
    43   15   34 1    
    44   16   19 ar   
    45   16   22 ar   
    46   17   23 ar   
    47   18   22 ar   
    48   18   28 ar   
    49   19   28 ar   
    50   20   21 ar   
    51   20   30 1    
    52   21   33 1    
    53   22   24 ar   
    54   23   24 ar   
    55   23   25 1    
    56   24   26 1    
    57   25   27 am   BACKBONE|DICT|INTERRES
    58   25   31 2    
    59   26   27 am   BACKBONE|DICT|INTERRES
    60   26   32 2    
    61   27   57 1    
    62   29   58 1    
    63   30   59 1    
@<TRIPOS>SUBSTRUCTURE
     1 <0>         1 GROUP             0       ****    0 ROOT    
@<TRIPOS>MOLECULE
wee1-ligand
59   63    1
SMALL
USER_CHARGES


@<TRIPOS>ATOM
      1 C1          1.7091   53.1804   22.4546 C.3       1 <0>         0.0313 
      2 C2          6.9391   59.2153   16.3895 C.3       1 <0>         0.0900 
      3 C3          4.6248   58.5613   15.9277 C.3       1 <0>         0.0900 
      4 C4          0.0104   51.8338   29.0284 C.ar      1 <0>        -0.1150 
      5 C5         -0.2210   52.7517   30.0599 C.ar      1 <0>        -0.1150 
      6 C6          0.9282   52.1289   28.0072 C.ar      1 <0>        -0.1150 
      7 C7          0.3872   54.0153   30.0165 C.ar      1 <0>        -0.1150 
      8 C8          6.2977   54.9677   23.2810 C.ar      1 <0>        -0.1150 
      9 C9          2.2341   53.4836   25.5410 C.ar      1 <0>        -0.1150 
     10 C10         4.4870   54.3593   21.1975 C.ar      1 <0>        -0.1150 
     11 C11         4.9352   56.3419   17.9984 C.3       1 <0>        -0.1200 
     12 C12         6.0930   57.1254   17.3459 C.3       1 <0>         0.1500 
     13 C13         5.3952   54.9515   18.4629 C.3       1 <0>         0.1400 
     14 C14         1.5893   53.3748   27.9711 C.ar      1 <0>         0.0000 
     15 C15         1.2587   54.3410   28.9602 C.ar      1 <0>         0.1800 
     16 C16         5.0132   54.4779   23.6030 C.ar      1 <0>        -0.0155 
     17 C17         2.5831   53.6222   26.9091 C.ar      1 <0>         0.0000 
     18 C18         3.1331   53.7854   24.4800 C.ar      1 <0>        -0.0235 
     19 C19         4.1025   54.1707   22.5385 C.ar      1 <0>        -0.0235 
     20 C20         6.6491   55.2053   21.9379 C.ar      1 <0>         0.1500 
     21 C21         5.7623   54.8944   20.8811 C.ar      1 <0>         0.0850 
     22 C22         4.4039   54.2238   24.8211 C.ar      1 <0>        -0.0155 
     23 C23         3.9213   53.9812   27.1722 C.ar      1 <0>        -0.1150 
     24 C24         4.8097   54.3007   26.1700 C.ar      1 <0>        -0.1150 
     25 C25         4.6506   54.0944   28.4624 C.2       1 <0>         0.6855 
     26 C26         6.0875   54.6746   26.8323 C.2       1 <0>         0.6855 
     27 N1          5.8918   54.4946   28.1492 N.am      1 <0>        -0.4817 
     28 N2          2.8953   53.6870   23.1135 N.pl3     1 <0>        -0.1333 
     29 N3          5.7453   58.4988   16.8972 N.4       1 <0>        -0.1000 
     30 O1          7.8916   55.6955   21.6566 O.3       1 <0>        -0.5850 
     31 O2          4.1961   53.8825   29.5835 O.2       1 <0>        -0.5080 
     32 O3          7.0916   55.1294   26.3029 O.2       1 <0>        -0.5080 
     33 O4          6.2443   55.0837   19.5991 O.3       1 <0>        -0.2850 
     34 Cl1         1.8917   55.9484   28.9129 Cl        1 <0>        -0.1800 
     35 H1          0.8292   53.7072   22.8182 H         1 <0>         0.0600 
     36 H2          1.7859   53.2945   21.3747 H         1 <0>         0.0600 
     37 H3          1.5960   52.1194   22.6808 H         1 <0>         0.0600 
     38 H4          7.3832   58.6885   15.5450 H         1 <0>         0.0600 
     39 H5          7.6916   59.3037   17.1740 H         1 <0>         0.0600 
     40 H6          6.6927   60.2248   16.0581 H         1 <0>         0.0600 
     41 H7          4.8306   57.9485   15.0487 H         1 <0>         0.0600 
     42 H8          3.6907   58.2275   16.3777 H         1 <0>         0.0600 
     43 H9          4.4600   59.5870   15.5950 H         1 <0>         0.0600 
     44 H10        -0.5127   50.8945   29.0399 H         1 <0>         0.1150 
     45 H11        -0.9067   52.4948   30.8563 H         1 <0>         0.1150 
     46 H12         1.1262   51.3842   27.2492 H         1 <0>         0.1150 
     47 H13         0.1678   54.7430   30.7843 H         1 <0>         0.1150 
     48 H14         7.0249   55.2037   24.0309 H         1 <0>         0.1150 
     49 H15         1.2322   53.1639   25.2951 H         1 <0>         0.1150 
     50 H16         3.7678   54.0945   20.4419 H         1 <0>         0.1150 
     51 H17         4.5157   56.8939   18.8401 H         1 <0>         0.0600 
     52 H18         4.1282   56.2015   17.2793 H         1 <0>         0.0600 
     53 H19         6.4777   56.5637   16.4929 H         1 <0>         0.0600 
     54 H20         6.9147   57.1966   18.0618 H         1 <0>         0.0600 
     55 H21         4.5512   54.2790   18.5911 H         1 <0>         0.0300 
     56 H22         5.9846   54.4859   17.6733 H         1 <0>         0.0300 
     57 H23         6.5878   54.7296   28.8473 H         1 <0>         0.3567 
     58 H24         5.4492   59.0366   17.7032 H         1 <0>         0.2900 
     59 H25         8.5138   55.5312   22.3590 H         1 <0>         0.4350 
@<TRIPOS>BOND
     1    1   28 1    
     2    1   35 1    
     3    1   36 1    
     4    1   37 1    
     5    2   29 1    
     6    2   38 1    
     7    2   39 1    
     8    2   40 1    
     9    3   29 1    
    10    3   41 1    
    11    3   42 1    
    12    3   43 1    
    13    4    5 ar   
    14    4    6 ar   
    15    4   44 1    
    16    5    7 ar   
    17    5   45 1    
    18    6   14 ar   
    19    6   46 1    
    20    7   15 ar   
    21    7   47 1    
    22    8   16 ar   
    23    8   20 ar   
    24    8   48 1    
    25    9   17 ar   
    26    9   18 ar   
    27    9   49 1    
    28   10   19 ar   
    29   10   21 ar   
    30   10   50 1    
    31   11   12 1    
    32   11   13 1    
    33   11   51 1    
    34   11   52 1    
    35   12   29 1    
    36   12   53 1    
    37   12   54 1    
    38   13   33 1    
    39   13   55 1    
    40   13   56 1    
    41   14   15 ar   
    42   14   17 1    
    43   15   34 1    
    44   16   19 ar   
    45   16   22 ar   
    46   17   23 ar   
    47   18   22 ar   
    48   18   28 ar   
    49   19   28 ar   
    50   20   21 ar   
    51   20   30 1    
    52   21   33 1    
    53   22   24 ar   
    54   23   24 ar   
    55   23   25 1    
    56   24   26 1    
    57   25   27 am   BACKBONE|DICT|INTERRES
    58   25   31 2    
    59   26   27 am   BACKBONE|DICT|INTERRES
    60   26   32 2    
    61   27   57 1    
    62   29   58 1    
    63   30   59 1    
@<TRIPOS>SUBSTRUCTURE
     1 <0>         1 GROUP             0       ****    0 ROOT    
@<TRIPOS>MOLECULE
wee1-ligand
59   63    1
SMALL
USER_CHARGES


@<TRIPOS>ATOM
      1 C1          1.5910   53.2137   22.5927 C.3       1 <0>         0.0313 
      2 C2          5.8626   58.7368   15.6122 C.3       1 <0>         0.0900 
      3 C3          3.4391   59.0978   15.6456 C.3       1 <0>         0.0900 
      4 C4         -0.0405   51.6950   28.9841 C.ar      1 <0>        -0.1150 
      5 C5         -0.2686   52.5452   30.0727 C.ar      1 <0>        -0.1150 
      6 C6          0.9025   52.0460   28.0050 C.ar      1 <0>        -0.1150 
      7 C7          0.3494   53.8055   30.1156 C.ar      1 <0>        -0.1150 
      8 C8          6.2493   54.8947   23.3176 C.ar      1 <0>        -0.1150 
      9 C9          2.2103   53.4340   25.6453 C.ar      1 <0>        -0.1150 
     10 C10         4.3830   54.3060   21.2714 C.ar      1 <0>        -0.1150 
     11 C11         5.4227   56.7758   17.9516 C.3       1 <0>        -0.1200 
     12 C12         4.3796   57.2243   16.9141 C.3       1 <0>         0.1500 
     13 C13         4.9937   55.5061   18.6993 C.3       1 <0>         0.1400 
     14 C14         1.5785   53.2841   28.0564 C.ar      1 <0>         0.0000 
     15 C15         1.2326   54.1952   29.0918 C.ar      1 <0>         0.1800 
     16 C16         4.9652   54.4075   23.6632 C.ar      1 <0>        -0.0155 
     17 C17         2.5742   53.5736   27.0071 C.ar      1 <0>         0.0000 
     18 C18         3.0925   53.7358   24.5739 C.ar      1 <0>        -0.0235 
     19 C19         4.0267   54.1085   22.6181 C.ar      1 <0>        -0.0235 
     20 C20         6.5597   55.1697   21.9716 C.ar      1 <0>         0.1500 
     21 C21         5.6290   54.8947   20.9429 C.ar      1 <0>         0.0850 
     22 C22         4.3723   54.1609   24.8917 C.ar      1 <0>        -0.0155 
     23 C23         3.9130   53.9486   27.2510 C.ar      1 <0>        -0.1150 
     24 C24         4.7924   54.2517   26.2328 C.ar      1 <0>        -0.1150 
     25 C25         4.6564   54.0912   28.5292 C.2       1 <0>         0.6855 
     26 C26         6.0807   54.6312   26.8714 C.2       1 <0>         0.6855 
     27 N1          5.8918   54.4945   28.1924 N.am      1 <0>        -0.4817 
     28 N2          2.8206   53.6544   23.2178 N.pl3     1 <0>        -0.1333 
     29 N3          4.6133   58.5950   16.3938 N.4       1 <0>        -0.1000 
     30 O1          7.7838   55.6948   21.6568 O.3       1 <0>        -0.5850 
     31 O2          4.2159   53.8939   29.6566 O.2       1 <0>        -0.5080 
     32 O3          7.0903   55.0528   26.3247 O.2       1 <0>        -0.5080 
     33 O4          6.0056   55.2081   19.6542 O.3       1 <0>        -0.2850 
     34 Cl1         1.8450   55.8099   29.1325 Cl        1 <0>        -0.1800 
     35 H1          0.7298   53.4902   23.2040 H         1 <0>         0.0600 
     36 H2          1.4783   53.6894   21.6264 H         1 <0>         0.0600 
     37 H3          1.6098   52.1306   22.4658 H         1 <0>         0.0600 
     38 H4          5.8615   58.0794   14.7418 H         1 <0>         0.0600 
     39 H5          6.7375   58.5068   16.2194 H         1 <0>         0.0600 
     40 H6          5.9783   59.7654   15.2658 H         1 <0>         0.0600 
     41 H7          3.2064   58.4504   14.7988 H         1 <0>         0.0600 
     42 H8          2.5613   59.1464   16.2923 H         1 <0>         0.0600 
     43 H9          3.6195   60.0995   15.2598 H         1 <0>         0.0600 
     44 H10        -0.5800   50.7675   28.9173 H         1 <0>         0.1150 
     45 H11        -0.9465   52.2426   30.8567 H         1 <0>         0.1150 
     46 H12         1.1061   51.3471   27.2073 H         1 <0>         0.1150 
     47 H13         0.1273   54.4830   30.9268 H         1 <0>         0.1150 
     48 H14         6.9960   55.1190   24.0524 H         1 <0>         0.1150 
     49 H15         1.2073   53.1106   25.4119 H         1 <0>         0.1150 
     50 H16         3.6677   54.0472   20.5060 H         1 <0>         0.1150 
     51 H17         6.3844   56.5954   17.4692 H         1 <0>         0.0600 
     52 H18         5.5845   57.5716   18.6793 H         1 <0>         0.0600 
     53 H19         3.3963   57.2055   17.3841 H         1 <0>         0.0600 
     54 H20         4.3359   56.5131   16.0877 H         1 <0>         0.0600 
     55 H21         4.0176   55.6944   19.1456 H         1 <0>         0.0300 
     56 H22         4.8835   54.6644   18.0146 H         1 <0>         0.0300 
     57 H23         6.6030   54.7420   28.8682 H         1 <0>         0.3567 
     58 H24         4.7174   59.2200   17.1841 H         1 <0>         0.2900 
     59 H25         8.4288   55.5519   22.3416 H         1 <0>         0.4350 
@<TRIPOS>BOND
     1    1   28 1    
     2    1   35 1    
     3    1   36 1    
     4    1   37 1    
     5    2   29 1    
     6    2   38 1    
     7    2   39 1    
     8    2   40 1    
     9    3   29 1    
    10    3   41 1    
    11    3   42 1    
    12    3   43 1    
    13    4    5 ar   
    14    4    6 ar   
    15    4   44 1    
    16    5    7 ar   
    17    5   45 1    
    18    6   14 ar   
    19    6   46 1    
    20    7   15 ar   
    21    7   47 1    
    22    8   16 ar   
    23    8   20 ar   
    24    8   48 1    
    25    9   17 ar   
    26    9   18 ar   
    27    9   49 1    
    28   10   19 ar   
    29   10   21 ar   
    30   10   50 1    
    31   11   12 1    
    32   11   13 1    
    33   11   51 1    
    34   11   52 1    
    35   12   29 1    
    36   12   53 1    
    37   12   54 1    
    38   13   33 1    
    39   13   55 1    
    40   13   56 1    
    41   14   15 ar   
    42   14   17 1    
    43   15   34 1    
    44   16   19 ar   
    45   16   22 ar   
    46   17   23 ar   
    47   18   22 ar   
    48   18   28 ar   
    49   19   28 ar   
    50   20   21 ar   
    51   20   30 1    
    52   21   33 1    
    53   22   24 ar   
    54   23   24 ar   
    55   23   25 1    
    56   24   26 1    
    57   25   27 am   BACKBONE|DICT|INTERRES
    58   25   31 2    
    59   26   27 am   BACKBONE|DICT|INTERRES
    60   26   32 2    
    61   27   57 1    
    62   29   58 1    
    63   30   59 1    
@<TRIPOS>SUBSTRUCTURE
     1 <0>         1 GROUP             0       ****    0 ROOT    
@<TRIPOS>MOLECULE
wee1-ligand
59   63    1
SMALL
USER_CHARGES


@<TRIPOS>ATOM
      1 C1          1.5127   53.4721   22.5503 C.3       1 <0>         0.0313 
      2 C2          6.9423   52.9526   15.2064 C.3       1 <0>         0.0900 
      3 C3          9.0580   52.5170   16.3601 C.3       1 <0>         0.0900 
      4 C4         -0.0083   51.7109   29.0435 C.ar      1 <0>        -0.1150 
      5 C5         -0.3024   52.6245   30.0719 C.ar      1 <0>        -0.1150 
      6 C6          0.9204   52.0546   28.0426 C.ar      1 <0>        -0.1150 
      7 C7          0.3354   53.8785   30.0968 C.ar      1 <0>        -0.1150 
      8 C8          6.2480   54.8599   23.3164 C.ar      1 <0>        -0.1150 
      9 C9          2.1421   53.5707   25.6291 C.ar      1 <0>        -0.1150 
     10 C10         4.3698   54.3524   21.2580 C.ar      1 <0>        -0.1150 
     11 C11         6.0272   54.2802   17.3317 C.3       1 <0>        -0.1200 
     12 C12         7.0989   53.2287   17.6664 C.3       1 <0>         0.1500 
     13 C13         5.2228   54.7144   18.5624 C.3       1 <0>         0.1400 
     14 C14         1.5637   53.3111   28.0534 C.ar      1 <0>         0.0000 
     15 C15         1.2651   54.2225   29.0953 C.ar      1 <0>         0.1800 
     16 C16         4.9359   54.4610   23.6590 C.ar      1 <0>        -0.0155 
     17 C17         2.5271   53.6411   26.9906 C.ar      1 <0>         0.0000 
     18 C18         3.0338   53.8697   24.5619 C.ar      1 <0>        -0.0235 
     19 C19         3.9919   54.2075   22.6068 C.ar      1 <0>        -0.0235 
     20 C20         6.6132   55.0020   21.9628 C.ar      1 <0>         0.1500 
     21 C21         5.6880   54.7518   20.9243 C.ar      1 <0>         0.0850 
     22 C22         4.3294   54.2470   24.8892 C.ar      1 <0>        -0.0155 
     23 C23         3.8554   54.0375   27.2482 C.ar      1 <0>        -0.1150 
     24 C24         4.7468   54.3340   26.2381 C.ar      1 <0>        -0.1150 
     25 C25         4.5648   54.2199   28.5430 C.2       1 <0>         0.6855 
     26 C26         6.0358   54.7022   26.8960 C.2       1 <0>         0.6855 
     27 N1          5.8143   54.6012   28.2212 N.am      1 <0>        -0.4817 
     28 N2          2.7589   53.8269   23.1992 N.pl3     1 <0>        -0.1333 
     29 N3          7.5813   52.5002   16.4649 N.4       1 <0>        -0.1000 
     30 O1          7.8870   55.3880   21.6567 O.3       1 <0>        -0.5850 
     31 O2          4.0961   54.0580   29.6676 O.2       1 <0>        -0.5080 
     32 O3          7.0877   55.0329   26.3593 O.2       1 <0>        -0.5080 
     33 O4          6.1360   54.9150   19.6295 O.3       1 <0>        -0.2850 
     34 Cl1         2.0345   55.7692   29.1661 Cl        1 <0>        -0.1800 
     35 H1          0.6949   54.0463   22.9862 H         1 <0>         0.0600 
     36 H2          1.5622   53.6870   21.4834 H         1 <0>         0.0600 
     37 H3          1.3178   52.4088   22.6912 H         1 <0>         0.0600 
     38 H4          7.1465   54.0079   15.0194 H         1 <0>         0.0600 
     39 H5          5.8620   52.8131   15.2317 H         1 <0>         0.0600 
     40 H6          7.3181   52.3806   14.3572 H         1 <0>         0.0600 
     41 H7          9.4307   53.5351   16.2377 H         1 <0>         0.0600 
     42 H8          9.5171   52.0901   17.2527 H         1 <0>         0.0600 
     43 H9          9.3931   51.9264   15.5064 H         1 <0>         0.0600 
     44 H10        -0.4957   50.7472   29.0207 H         1 <0>         0.1150 
     45 H11        -1.0152   52.3643   30.8406 H         1 <0>         0.1150 
     46 H12         1.1377   51.3476   27.2552 H         1 <0>         0.1150 
     47 H13         0.1112   54.5795   30.8872 H         1 <0>         0.1150 
     48 H14         6.9931   55.0621   24.0609 H         1 <0>         0.1150 
     49 H15         1.1311   53.2710   25.3948 H         1 <0>         0.1150 
     50 H16         3.6333   54.1516   20.4965 H         1 <0>         0.1150 
     51 H17         6.4850   55.1660   16.8916 H         1 <0>         0.0600 
     52 H18         5.3416   53.8808   16.5830 H         1 <0>         0.0600 
     53 H19         6.6610   52.5114   18.3626 H         1 <0>         0.0600 
     54 H20         7.9410   53.6883   18.1868 H         1 <0>         0.0600 
     55 H21         4.6819   55.6378   18.3487 H         1 <0>         0.0300 
     56 H22         4.4976   53.9419   18.8238 H         1 <0>         0.0300 
     57 H23         6.5218   54.7958   28.9123 H         1 <0>         0.3567 
     58 H24         7.3224   51.5314   16.5920 H         1 <0>         0.2900 
     59 H25         8.4907   55.2684   22.3739 H         1 <0>         0.4350 
@<TRIPOS>BOND
     1    1   28 1    
     2    1   35 1    
     3    1   36 1    
     4    1   37 1    
     5    2   29 1    
     6    2   38 1    
     7    2   39 1    
     8    2   40 1    
     9    3   29 1    
    10    3   41 1    
    11    3   42 1    
    12    3   43 1    
    13    4    5 ar   
    14    4    6 ar   
    15    4   44 1    
    16    5    7 ar   
    17    5   45 1    
    18    6   14 ar   
    19    6   46 1    
    20    7   15 ar   
    21    7   47 1    
    22    8   16 ar   
    23    8   20 ar   
    24    8   48 1    
    25    9   17 ar   
    26    9   18 ar   
    27    9   49 1    
    28   10   19 ar   
    29   10   21 ar   
    30   10   50 1    
    31   11   12 1    
    32   11   13 1    
    33   11   51 1    
    34   11   52 1    
    35   12   29 1    
    36   12   53 1    
    37   12   54 1    
    38   13   33 1    
    39   13   55 1    
    40   13   56 1    
    41   14   15 ar   
    42   14   17 1    
    43   15   34 1    
    44   16   19 ar   
    45   16   22 ar   
    46   17   23 ar   
    47   18   22 ar   
    48   18   28 ar   
    49   19   28 ar   
    50   20   21 ar   
    51   20   30 1    
    52   21   33 1    
    53   22   24 ar   
    54   23   24 ar   
    55   23   25 1    
    56   24   26 1    
    57   25   27 am   BACKBONE|DICT|INTERRES
    58   25   31 2    
    59   26   27 am   BACKBONE|DICT|INTERRES
    60   26   32 2    
    61   27   57 1    
    62   29   58 1    
    63   30   59 1    
@<TRIPOS>SUBSTRUCTURE
     1 <0>         1 GROUP             0       ****    0 ROOT    
