@<TRIPOS>MOLECULE
xiap-ligand
76   79    1
SMALL
USER_CHARGES


@<TRIPOS>ATOM
      1 C1          6.6770    7.8062  -20.1618 C.3       1 <0>        -0.1800 
      2 C2          7.8201   17.4869  -18.1577 C.3       1 <0>        -0.1800 
      3 C3          8.1907   18.7232  -21.4202 C.3       1 <0>         0.1100 
      4 C4         13.9387    8.1302  -17.9239 C.ar      1 <0>        -0.1150 
      5 C5         13.3161    9.2493  -17.3454 C.ar      1 <0>        -0.1150 
      6 C6         10.1087    5.1577  -22.0402 C.ar      1 <0>        -0.6890 
      7 C7         13.2612    7.3702  -18.8938 C.ar      1 <0>        -0.1150 
      8 C8         12.0112    9.5966  -17.7351 C.ar      1 <0>        -0.1150 
      9 C9          9.5070    5.4713  -20.8104 C.ar      1 <0>         0.6530 
     10 C10        11.3635    5.7416  -22.2825 C.ar      1 <0>         0.6530 
     11 C11        10.5897   13.3799  -25.0430 C.3       1 <0>        -0.1200 
     12 C12        11.1353   14.2268  -23.8826 C.3       1 <0>        -0.1200 
     13 C13         9.0596   13.4950  -25.1404 C.3       1 <0>        -0.1200 
     14 C14        10.4469   13.8546  -22.5606 C.3       1 <0>        -0.1200 
     15 C15         8.3837   13.1343  -23.8063 C.3       1 <0>        -0.1200 
     16 C16         5.9064    9.9262  -21.3350 C.3       1 <0>        -0.1200 
     17 C17         6.4951   11.3186  -21.5366 C.3       1 <0>        -0.0500 
     18 C18        11.9406    7.6985  -19.2810 C.ar      1 <0>        -0.0420 
     19 C19        11.3125    8.8361  -18.6951 C.ar      1 <0>         0.0850 
     20 C20        11.2826    6.8122  -20.2551 C.ar      1 <0>         0.8840 
     21 C21         7.0914    9.0712  -20.9278 C.3       1 <0>        -0.0600 
     22 C22         8.9083   14.0133  -22.6534 C.3       1 <0>        -0.0600 
     23 C23         7.9906   10.0472  -20.1438 C.3       1 <0>         0.0100 
     24 C24         8.6040   17.1741  -19.4360 C.3       1 <0>         0.2300 
     25 C25         8.1709   13.8066  -21.2934 C.3       1 <0>         0.1400 
     26 C26         9.4621    9.5802  -20.1550 C.2       1 <0>         0.5000 
     27 C27         7.8749   16.0854  -20.2587 C.2       1 <0>         0.5000 
     28 C28         8.4858   12.4853  -20.5519 C.2       1 <0>         0.5000 
     29 N1         10.0989    6.2899  -19.9182 N.ar      1 <0>        -0.8390 
     30 N2         11.9514    6.5551  -21.3840 N.ar      1 <0>        -0.8390 
     31 N3          8.9210   18.4387  -20.1626 N.4       1 <0>        -0.2000 
     32 N4          9.9791    9.2421  -18.9625 N.am      1 <0>        -0.3850 
     33 N5          8.5226   14.9266  -20.4184 N.am      1 <0>        -0.5000 
     34 N6          7.7324   11.3716  -20.7502 N.am      1 <0>        -0.1400 
     35 O1         10.0914    9.5295  -21.2122 O.2       1 <0>        -0.5000 
     36 O2          6.7593   16.2926  -20.7357 O.2       1 <0>        -0.5000 
     37 O3          9.4361   12.4922  -19.7629 O.2       1 <0>        -0.5000 
     38 H1          5.9901    8.0437  -19.3526 H         1 <0>         0.0600 
     39 H2          6.1686    7.1017  -20.8202 H         1 <0>         0.0600 
     40 H3          7.5370    7.2989  -19.7280 H         1 <0>         0.0600 
     41 H4          7.5193   16.5828  -17.6270 H         1 <0>         0.0600 
     42 H5          8.4142   18.0894  -17.4700 H         1 <0>         0.0600 
     43 H6          6.9226   18.0508  -18.4005 H         1 <0>         0.0600 
     44 H7          8.5224   19.6568  -21.8550 H         1 <0>         0.0600 
     45 H8          8.3659   17.9555  -22.1757 H         1 <0>         0.0600 
     46 H9          7.1191   18.8180  -21.2380 H         1 <0>         0.0600 
     47 H10        14.9336    7.8499  -17.6179 H         1 <0>         0.1150 
     48 H11        13.8307    9.8362  -16.5991 H         1 <0>         0.1150 
     49 H12         9.6368    4.5032  -22.7574 H         1 <0>         0.1970 
     50 H13        13.7476    6.5073  -19.3270 H         1 <0>         0.1150 
     51 H14        11.5383   10.4579  -17.2870 H         1 <0>         0.1150 
     52 H15         8.5463    5.0605  -20.5376 H         1 <0>         0.0110 
     53 H16        11.8991    5.5506  -23.2005 H         1 <0>         0.0110 
     54 H17        10.8698   12.3356  -24.8951 H         1 <0>         0.0600 
     55 H18        11.0491   13.6927  -25.9813 H         1 <0>         0.0600 
     56 H19        12.2142   14.0902  -23.7932 H         1 <0>         0.0600 
     57 H20        10.9798   15.2868  -24.0916 H         1 <0>         0.0600 
     58 H21         8.6896   12.8432  -25.9321 H         1 <0>         0.0600 
     59 H22         8.7864   14.5123  -25.4250 H         1 <0>         0.0600 
     60 H23        10.7057   12.8266  -22.3042 H         1 <0>         0.0600 
     61 H24        10.8504   14.4723  -21.7629 H         1 <0>         0.0600 
     62 H25         7.3043   13.2524  -23.9085 H         1 <0>         0.0600 
     63 H26         8.5771   12.0840  -23.5909 H         1 <0>         0.0600 
     64 H27         5.1776    9.9637  -20.5240 H         1 <0>         0.0600 
     65 H28         5.3929    9.5518  -22.2216 H         1 <0>         0.0600 
     66 H29         5.7717   12.0638  -21.2158 H         1 <0>         0.0600 
     67 H30         6.6973   11.4688  -22.5932 H         1 <0>         0.0600 
     68 H31         7.6093    8.7678  -21.8401 H         1 <0>         0.0600 
     69 H32         8.7129   15.0446  -22.9546 H         1 <0>         0.0600 
     70 H33         7.6402   10.1094  -19.1108 H         1 <0>         0.0600 
     71 H34         9.5681   16.7752  -19.1189 H         1 <0>         0.0600 
     72 H35         7.0970   13.8616  -21.4731 H         1 <0>         0.0600 
     73 H36         8.7015   19.2080  -19.5237 H         1 <0>         0.3100 
     74 H37         9.9166   18.4584  -20.3769 H         1 <0>         0.3100 
     75 H38         9.4078    9.4524  -18.1510 H         1 <0>         0.3000 
     76 H39         9.4481   14.8561  -20.0073 H         1 <0>         0.3000 
@<TRIPOS>BOND
     1    1   21 1    
     2    1   38 1    
     3    1   39 1    
     4    1   40 1    
     5    2   24 1    
     6    2   41 1    
     7    2   42 1    
     8    2   43 1    
     9    3   31 1    
    10    3   44 1    
    11    3   45 1    
    12    3   46 1    
    13    4    5 ar   
    14    4    7 ar   
    15    4   47 1    
    16    5    8 ar   
    17    5   48 1    
    18    6    9 ar   
    19    6   10 ar   
    20    6   49 1    
    21    7   18 ar   
    22    7   50 1    
    23    8   19 ar   
    24    8   51 1    
    25    9   29 ar   
    26    9   52 1    
    27   10   30 ar   
    28   10   53 1    
    29   11   12 1    
    30   11   13 1    
    31   11   54 1    
    32   11   55 1    
    33   12   14 1    
    34   12   56 1    
    35   12   57 1    
    36   13   15 1    
    37   13   58 1    
    38   13   59 1    
    39   14   22 1    
    40   14   60 1    
    41   14   61 1    
    42   15   22 1    
    43   15   62 1    
    44   15   63 1    
    45   16   17 1    
    46   16   21 1    
    47   16   64 1    
    48   16   65 1    
    49   17   34 1    
    50   17   66 1    
    51   17   67 1    
    52   18   19 ar   
    53   18   20 1    
    54   19   32 1    
    55   20   29 ar   
    56   20   30 ar   
    57   21   23 1    
    58   21   68 1    
    59   22   25 1    
    60   22   69 1    
    61   23   26 1    
    62   23   34 1    
    63   23   70 1    
    64   24   27 1    
    65   24   31 1    
    66   24   71 1    
    67   25   28 1    
    68   25   33 1    
    69   25   72 1    
    70   26   32 am   BACKBONE|DICT|INTERRES
    71   26   35 2    
    72   27   33 am   BACKBONE|DICT|INTERRES
    73   27   36 2    
    74   28   34 am   BACKBONE|DICT|INTERRES
    75   28   37 2    
    76   31   73 1    
    77   31   74 1    
    78   32   75 1    
    79   33   76 1    
@<TRIPOS>SUBSTRUCTURE
     1 <0>         1 GROUP             0       ****    0 ROOT    
@<TRIPOS>MOLECULE
xiap-ligand
76   79    1
SMALL
USER_CHARGES


@<TRIPOS>ATOM
      1 C1          6.8281    8.3015  -19.8178 C.3       1 <0>        -0.1800 
      2 C2          7.9552   17.6368  -17.9581 C.3       1 <0>        -0.1800 
      3 C3          7.6966   18.5357  -21.2611 C.3       1 <0>         0.1100 
      4 C4         13.9933    8.0673  -18.0361 C.ar      1 <0>        -0.1150 
      5 C5         13.3924    9.0699  -17.2588 C.ar      1 <0>        -0.1150 
      6 C6         10.2116    6.2049  -22.7972 C.ar      1 <0>        -0.6890 
      7 C7         13.3287    7.5636  -19.1683 C.ar      1 <0>        -0.1150 
      8 C8         12.1202    9.5561  -17.6062 C.ar      1 <0>        -0.1150 
      9 C9         11.4969    6.7621  -22.8791 C.ar      1 <0>         0.6530 
     10 C10         9.5760    6.2865  -21.5468 C.ar      1 <0>         0.6530 
     11 C11        10.9589   12.8931  -24.9428 C.3       1 <0>        -0.1200 
     12 C12        11.3984   14.0439  -24.0266 C.3       1 <0>        -0.1200 
     13 C13         9.4421   12.9336  -25.1722 C.3       1 <0>        -0.1200 
     14 C14        10.6353   14.0041  -22.6923 C.3       1 <0>        -0.1200 
     15 C15         8.6734   12.9077  -23.8405 C.3       1 <0>        -0.1200 
     16 C16         6.0172   10.2998  -21.1379 C.3       1 <0>        -0.1200 
     17 C17         6.5841   11.6756  -21.4620 C.3       1 <0>        -0.0500 
     18 C18        12.0400    8.0271  -19.5207 C.ar      1 <0>        -0.0420 
     19 C19        11.4292    9.0520  -18.7356 C.ar      1 <0>         0.0850 
     20 C20        11.3890    7.3841  -20.6730 C.ar      1 <0>         0.8840 
     21 C21         7.2213    9.4842  -20.7070 C.3       1 <0>        -0.0600 
     22 C22         9.1060   14.0508  -22.8908 C.3       1 <0>        -0.0600 
     23 C23         8.1427   10.5221  -20.0360 C.3       1 <0>         0.0100 
     24 C24         8.6539   17.2656  -19.2737 C.3       1 <0>         0.2300 
     25 C25         8.2933   14.1375  -21.5527 C.3       1 <0>         0.1400 
     26 C26         9.6187   10.0716  -20.1021 C.2       1 <0>         0.5000 
     27 C27         8.0197   16.0042  -19.9003 C.2       1 <0>         0.5000 
     28 C28         8.5705   12.9288  -20.6106 C.2       1 <0>         0.5000 
     29 N1         12.0877    7.3374  -21.8114 N.ar      1 <0>        -0.8390 
     30 N2         10.1728    6.8659  -20.4872 N.ar      1 <0>        -0.8390 
     31 N3          8.6902   18.4556  -20.1670 N.4       1 <0>        -0.2000 
     32 N4         10.1227    9.5666  -18.9626 N.am      1 <0>        -0.3850 
     33 N5          8.6806   15.3954  -20.8942 N.am      1 <0>        -0.5000 
     34 N6          7.8381   11.7941  -20.7175 N.am      1 <0>        -0.1400 
     35 O1         10.2553   10.1751  -21.1505 O.2       1 <0>        -0.5000 
     36 O2          6.9226   15.6136  -19.5136 O.2       1 <0>        -0.5000 
     37 O3          9.4634   13.0245  -19.7639 O.2       1 <0>        -0.5000 
     38 H1          6.2420    8.6517  -18.9701 H         1 <0>         0.0600 
     39 H2          6.2164    7.5889  -20.3684 H         1 <0>         0.0600 
     40 H3          7.6974    7.7721  -19.4364 H         1 <0>         0.0600 
     41 H4          7.9266   16.7938  -17.2661 H         1 <0>         0.0600 
     42 H5          8.4655   18.4559  -17.4537 H         1 <0>         0.0600 
     43 H6          6.9284   17.9445  -18.1642 H         1 <0>         0.0600 
     44 H7          7.7833   19.4967  -21.7670 H         1 <0>         0.0600 
     45 H8          7.8525   17.7609  -22.0135 H         1 <0>         0.0600 
     46 H9          6.6842   18.4540  -20.8671 H         1 <0>         0.0600 
     47 H10        14.9648    7.6833  -17.7655 H         1 <0>         0.1150 
     48 H11        13.9024    9.4651  -16.3917 H         1 <0>         0.1150 
     49 H12         9.7351    5.7446  -23.6503 H         1 <0>         0.1970 
     50 H13        13.7959    6.7875  -19.7563 H         1 <0>         0.1150 
     51 H14        11.6758   10.3227  -16.9881 H         1 <0>         0.1150 
     52 H15        12.0610    6.7412  -23.7992 H         1 <0>         0.0110 
     53 H16         8.5857    5.8831  -21.3945 H         1 <0>         0.0110 
     54 H17        11.2393   11.9387  -24.4962 H         1 <0>         0.0600 
     55 H18        11.4823   12.9549  -25.8982 H         1 <0>         0.0600 
     56 H19        12.4728   13.9847  -23.8409 H         1 <0>         0.0600 
     57 H20        11.2247   14.9989  -24.5245 H         1 <0>         0.0600 
     58 H21         9.1375   12.0856  -25.7870 H         1 <0>         0.0600 
     59 H22         9.1772   13.8328  -25.7319 H         1 <0>         0.0600 
     60 H23        10.9288   13.1120  -22.1374 H         1 <0>         0.0600 
     61 H24        10.9246   14.8560  -22.0930 H         1 <0>         0.0600 
     62 H25         7.6085   12.9911  -24.0577 H         1 <0>         0.0600 
     63 H26         8.8430   11.9420  -23.3616 H         1 <0>         0.0600 
     64 H27         5.3227   10.4009  -20.3033 H         1 <0>         0.0600 
     65 H28         5.4712    9.8560  -21.9708 H         1 <0>         0.0600 
     66 H29         5.8857   12.4558  -21.1761 H         1 <0>         0.0600 
     67 H30         6.7470   11.7385  -22.5328 H         1 <0>         0.0600 
     68 H31         7.7072    9.1052  -21.6099 H         1 <0>         0.0600 
     69 H32         8.8911   14.9746  -23.4304 H         1 <0>         0.0600 
     70 H33         7.8519   10.6483  -18.9916 H         1 <0>         0.0600 
     71 H34         9.6909   17.0227  -19.0327 H         1 <0>         0.0600 
     72 H35         7.2305   14.2009  -21.7867 H         1 <0>         0.0600 
     73 H36         8.5232   19.2789  -19.5746 H         1 <0>         0.3100 
     74 H37         9.6185   18.5332  -20.5624 H         1 <0>         0.3100 
     75 H38         9.5365    9.6569  -18.1426 H         1 <0>         0.3000 
     76 H39         9.6163   15.7192  -21.0896 H         1 <0>         0.3000 
@<TRIPOS>BOND
     1    1   21 1    
     2    1   38 1    
     3    1   39 1    
     4    1   40 1    
     5    2   24 1    
     6    2   41 1    
     7    2   42 1    
     8    2   43 1    
     9    3   31 1    
    10    3   44 1    
    11    3   45 1    
    12    3   46 1    
    13    4    5 ar   
    14    4    7 ar   
    15    4   47 1    
    16    5    8 ar   
    17    5   48 1    
    18    6    9 ar   
    19    6   10 ar   
    20    6   49 1    
    21    7   18 ar   
    22    7   50 1    
    23    8   19 ar   
    24    8   51 1    
    25    9   29 ar   
    26    9   52 1    
    27   10   30 ar   
    28   10   53 1    
    29   11   12 1    
    30   11   13 1    
    31   11   54 1    
    32   11   55 1    
    33   12   14 1    
    34   12   56 1    
    35   12   57 1    
    36   13   15 1    
    37   13   58 1    
    38   13   59 1    
    39   14   22 1    
    40   14   60 1    
    41   14   61 1    
    42   15   22 1    
    43   15   62 1    
    44   15   63 1    
    45   16   17 1    
    46   16   21 1    
    47   16   64 1    
    48   16   65 1    
    49   17   34 1    
    50   17   66 1    
    51   17   67 1    
    52   18   19 ar   
    53   18   20 1    
    54   19   32 1    
    55   20   29 ar   
    56   20   30 ar   
    57   21   23 1    
    58   21   68 1    
    59   22   25 1    
    60   22   69 1    
    61   23   26 1    
    62   23   34 1    
    63   23   70 1    
    64   24   27 1    
    65   24   31 1    
    66   24   71 1    
    67   25   28 1    
    68   25   33 1    
    69   25   72 1    
    70   26   32 am   BACKBONE|DICT|INTERRES
    71   26   35 2    
    72   27   33 am   BACKBONE|DICT|INTERRES
    73   27   36 2    
    74   28   34 am   BACKBONE|DICT|INTERRES
    75   28   37 2    
    76   31   73 1    
    77   31   74 1    
    78   32   75 1    
    79   33   76 1    
@<TRIPOS>SUBSTRUCTURE
     1 <0>         1 GROUP             0       ****    0 ROOT    
@<TRIPOS>MOLECULE
xiap-ligand
76   79    1
SMALL
USER_CHARGES


@<TRIPOS>ATOM
      1 C1          6.6881    8.3053  -19.8961 C.3       1 <0>        -0.1800 
      2 C2          7.8854   17.3947  -18.2697 C.3       1 <0>        -0.1800 
      3 C3          8.0072   18.7663  -21.3904 C.3       1 <0>         0.1100 
      4 C4         13.9565    8.0178  -17.8910 C.ar      1 <0>        -0.1150 
      5 C5         13.3924    9.1384  -17.2594 C.ar      1 <0>        -0.1150 
      6 C6          9.9789    5.5162  -22.1885 C.ar      1 <0>        -0.6890 
      7 C7         13.2492    7.3553  -18.9114 C.ar      1 <0>        -0.1150 
      8 C8         12.1224    9.5934  -17.6515 C.ar      1 <0>        -0.1150 
      9 C9         11.2884    5.9872  -22.3816 C.ar      1 <0>         0.6530 
     10 C10         9.3780    5.8418  -20.9615 C.ar      1 <0>         0.6530 
     11 C11        11.5680   12.8203  -24.8702 C.3       1 <0>        -0.1200 
     12 C12        11.9806   13.8443  -23.8022 C.3       1 <0>        -0.1200 
     13 C13        10.0806   12.9633  -25.2286 C.3       1 <0>        -0.1200 
     14 C14        11.0869   13.7237  -22.5597 C.3       1 <0>        -0.1200 
     15 C15         9.1881   12.8700  -23.9795 C.3       1 <0>        -0.1200 
     16 C16         6.1145   10.2928  -21.3728 C.3       1 <0>        -0.1200 
     17 C17         6.7931   11.6220  -21.6865 C.3       1 <0>        -0.0500 
     18 C18        11.9616    7.7894  -19.3028 C.ar      1 <0>        -0.0420 
     19 C19        11.4004    8.9393  -18.6734 C.ar      1 <0>         0.0850 
     20 C20        11.2565    6.9908  -20.3197 C.ar      1 <0>         0.8840 
     21 C21         7.2200    9.4104  -20.8186 C.3       1 <0>        -0.0600 
     22 C22         9.5892   13.9126  -22.9136 C.3       1 <0>        -0.0600 
     23 C23         8.1889   10.3995  -20.1418 C.3       1 <0>         0.0100 
     24 C24         8.7121   17.1708  -19.5457 C.3       1 <0>         0.2300 
     25 C25         8.6146   13.9649  -21.6946 C.3       1 <0>         0.1400 
     26 C26         9.6321    9.8510  -20.1492 C.2       1 <0>         0.5000 
     27 C27         8.0846   16.0674  -20.4186 C.2       1 <0>         0.5000 
     28 C28         8.8111   12.7554  -20.7462 C.2       1 <0>         0.5000 
     29 N1         11.9265    6.7107  -21.4422 N.ar      1 <0>        -0.8390 
     30 N2         10.0216    6.5686  -20.0281 N.ar      1 <0>        -0.8390 
     31 N3          8.9201   18.4568  -20.2572 N.4       1 <0>        -0.2000 
     32 N4         10.1088    9.4539  -18.9603 N.am      1 <0>        -0.3850 
     33 N5          8.9226   15.1702  -20.9363 N.am      1 <0>        -0.5000 
     34 N6          8.0072   11.6706  -20.8675 N.am      1 <0>        -0.1400 
     35 O1         10.2742    9.7933  -21.1986 O.2       1 <0>        -0.5000 
     36 O2          6.8765   16.0559  -20.6357 O.2       1 <0>        -0.5000 
     37 O3          9.7089   12.8099  -19.8965 O.2       1 <0>        -0.5000 
     38 H1          6.0483    8.7256  -19.1204 H         1 <0>         0.0600 
     39 H2          6.0922    7.5839  -20.4556 H         1 <0>         0.0600 
     40 H3          7.4975    7.7618  -19.4081 H         1 <0>         0.0600 
     41 H4          7.6969   16.4587  -17.7418 H         1 <0>         0.0600 
     42 H5          8.4036   18.0590  -17.5778 H         1 <0>         0.0600 
     43 H6          6.9227   17.8481  -18.5035 H         1 <0>         0.0600 
     44 H7          8.1227   19.7806  -21.7623 H         1 <0>         0.0600 
     45 H8          8.1805   18.1012  -22.2370 H         1 <0>         0.0600 
     46 H9          6.9661   18.6770  -21.0767 H         1 <0>         0.0600 
     47 H10        14.9260    7.6588  -17.5841 H         1 <0>         0.1150 
     48 H11        13.9306    9.6486  -16.4734 H         1 <0>         0.1150 
     49 H12         9.4637    4.9359  -22.9388 H         1 <0>         0.1970 
     50 H13        13.6861    6.4851  -19.3795 H         1 <0>         0.1150 
     51 H14        11.7054   10.4579  -17.1578 H         1 <0>         0.1150 
     52 H15        11.8294    5.7787  -23.2931 H         1 <0>         0.0110 
     53 H16         8.3758    5.5160  -20.7264 H         1 <0>         0.0110 
     54 H17        11.7595   11.8119  -24.5006 H         1 <0>         0.0600 
     55 H18        12.1805   12.9437  -25.7631 H         1 <0>         0.0600 
     56 H19        13.0245   13.6954  -23.5250 H         1 <0>         0.0600 
     57 H20        11.9142   14.8556  -24.2076 H         1 <0>         0.0600 
     58 H21         9.7967   12.1919  -25.9457 H         1 <0>         0.0600 
     59 H22         9.9163   13.9213  -25.7249 H         1 <0>         0.0600 
     60 H23        11.2537   12.7451  -22.1082 H         1 <0>         0.0600 
     61 H24        11.4016   14.4556  -21.8195 H         1 <0>         0.0600 
     62 H25         8.1497   13.0195  -24.2745 H         1 <0>         0.0600 
     63 H26         9.2590   11.8632  -23.5651 H         1 <0>         0.0600 
     64 H27         5.3528   10.4563  -20.6087 H         1 <0>         0.0600 
     65 H28         5.6179    9.8584  -22.2414 H         1 <0>         0.0600 
     66 H29         6.1227   12.4532  -21.4665 H         1 <0>         0.0600 
     67 H30         7.0481   11.6580  -22.7438 H         1 <0>         0.0600 
     68 H31         7.7226    8.9422  -21.6682 H         1 <0>         0.0600 
     69 H32         9.5046   14.8855  -23.4014 H         1 <0>         0.0600 
     70 H33         7.8702   10.5766  -19.1128 H         1 <0>         0.0600 
     71 H34         9.7070   16.8522  -19.2274 H         1 <0>         0.0600 
     72 H35         7.5901   14.0375  -22.0570 H         1 <0>         0.0600 
     73 H36         8.7598   19.1958  -19.5700 H         1 <0>         0.3100 
     74 H37         9.8896   18.5046  -20.5697 H         1 <0>         0.3100 
     75 H38         9.5249    9.6568  -18.1559 H         1 <0>         0.3000 
     76 H39         9.8970   15.2501  -20.6466 H         1 <0>         0.3000 
@<TRIPOS>BOND
     1    1   21 1    
     2    1   38 1    
     3    1   39 1    
     4    1   40 1    
     5    2   24 1    
     6    2   41 1    
     7    2   42 1    
     8    2   43 1    
     9    3   31 1    
    10    3   44 1    
    11    3   45 1    
    12    3   46 1    
    13    4    5 ar   
    14    4    7 ar   
    15    4   47 1    
    16    5    8 ar   
    17    5   48 1    
    18    6    9 ar   
    19    6   10 ar   
    20    6   49 1    
    21    7   18 ar   
    22    7   50 1    
    23    8   19 ar   
    24    8   51 1    
    25    9   29 ar   
    26    9   52 1    
    27   10   30 ar   
    28   10   53 1    
    29   11   12 1    
    30   11   13 1    
    31   11   54 1    
    32   11   55 1    
    33   12   14 1    
    34   12   56 1    
    35   12   57 1    
    36   13   15 1    
    37   13   58 1    
    38   13   59 1    
    39   14   22 1    
    40   14   60 1    
    41   14   61 1    
    42   15   22 1    
    43   15   62 1    
    44   15   63 1    
    45   16   17 1    
    46   16   21 1    
    47   16   64 1    
    48   16   65 1    
    49   17   34 1    
    50   17   66 1    
    51   17   67 1    
    52   18   19 ar   
    53   18   20 1    
    54   19   32 1    
    55   20   29 ar   
    56   20   30 ar   
    57   21   23 1    
    58   21   68 1    
    59   22   25 1    
    60   22   69 1    
    61   23   26 1    
    62   23   34 1    
    63   23   70 1    
    64   24   27 1    
    65   24   31 1    
    66   24   71 1    
    67   25   28 1    
    68   25   33 1    
    69   25   72 1    
    70   26   32 am   BACKBONE|DICT|INTERRES
    71   26   35 2    
    72   27   33 am   BACKBONE|DICT|INTERRES
    73   27   36 2    
    74   28   34 am   BACKBONE|DICT|INTERRES
    75   28   37 2    
    76   31   73 1    
    77   31   74 1    
    78   32   75 1    
    79   33   76 1    
@<TRIPOS>SUBSTRUCTURE
     1 <0>         1 GROUP             0       ****    0 ROOT    
@<TRIPOS>MOLECULE
xiap-ligand
76   79    1
SMALL
USER_CHARGES


@<TRIPOS>ATOM
      1 C1          6.8192    8.0059  -20.2601 C.3       1 <0>        -0.1800 
      2 C2          7.9129   17.3447  -18.2223 C.3       1 <0>        -0.1800 
      3 C3          7.9673   18.7446  -21.3642 C.3       1 <0>         0.1100 
      4 C4         13.3545    7.6603  -17.0028 C.ar      1 <0>        -0.1150 
      5 C5         13.1454    9.0108  -17.3340 C.ar      1 <0>        -0.1150 
      6 C6          8.1707    4.2364  -18.4268 C.ar      1 <0>        -0.6890 
      7 C7         12.3592    6.7078  -17.2903 C.ar      1 <0>        -0.1150 
      8 C8         11.9586    9.3991  -17.9809 C.ar      1 <0>        -0.1150 
      9 C9          9.4594    4.0617  -18.9619 C.ar      1 <0>         0.6530 
     10 C10         7.9499    5.4227  -17.7050 C.ar      1 <0>         0.6530 
     11 C11        11.5203   12.7728  -24.8126 C.3       1 <0>        -0.1200 
     12 C12        11.9501   13.7761  -23.7339 C.3       1 <0>        -0.1200 
     13 C13        10.0353   12.9460  -25.1618 C.3       1 <0>        -0.1200 
     14 C14        11.0628   13.6568  -22.4857 C.3       1 <0>        -0.1200 
     15 C15         9.1501   12.8372  -23.9086 C.3       1 <0>        -0.1200 
     16 C16         6.1612   10.1438  -21.4814 C.3       1 <0>        -0.1200 
     17 C17         6.8134   11.5060  -21.7017 C.3       1 <0>        -0.0500 
     18 C18        11.1566    7.0956  -17.9222 C.ar      1 <0>        -0.0420 
     19 C19        10.9749    8.4441  -18.3256 C.ar      1 <0>         0.0850 
     20 C20        10.1085    6.0858  -18.1059 C.ar      1 <0>         0.8840 
     21 C21         7.3028    9.2646  -20.9981 C.3       1 <0>        -0.0600 
     22 C22         9.5621   13.8524  -22.8217 C.3       1 <0>        -0.0600 
     23 C23         8.1673   10.2368  -20.1711 C.3       1 <0>         0.0100 
     24 C24         8.7109   17.1536  -19.5195 C.3       1 <0>         0.2300 
     25 C25         8.6037   13.8791  -21.5864 C.3       1 <0>         0.1400 
     26 C26         9.6119    9.7178  -19.9695 C.2       1 <0>         0.5000 
     27 C27         8.0956   16.0330  -20.3848 C.2       1 <0>         0.5000 
     28 C28         8.7740   12.6465  -20.6590 C.2       1 <0>         0.5000 
     29 N1         10.4271    4.9839  -18.7909 N.ar      1 <0>        -0.8390 
     30 N2          8.9228    6.3410  -17.5415 N.ar      1 <0>        -0.8390 
     31 N3          8.8666   18.4567  -20.2177 N.4       1 <0>        -0.2000 
     32 N4          9.7675    8.8466  -18.9623 N.am      1 <0>        -0.3850 
     33 N5          8.9226   15.0755  -20.8111 N.am      1 <0>        -0.5000 
     34 N6          8.0024   11.5448  -20.8430 N.am      1 <0>        -0.1400 
     35 O1         10.5240   10.0403  -20.7309 O.2       1 <0>        -0.5000 
     36 O2          6.9003   16.0534  -20.6658 O.2       1 <0>        -0.5000 
     37 O3          9.6219   12.7029  -19.7639 O.2       1 <0>        -0.5000 
     38 H1          6.2585    8.2634  -19.3624 H         1 <0>         0.0600 
     39 H2          6.1637    7.4133  -20.8982 H         1 <0>         0.0600 
     40 H3          7.6509    7.3656  -19.9686 H         1 <0>         0.0600 
     41 H4          7.7900   16.4040  -17.6840 H         1 <0>         0.0600 
     42 H5          8.4155   18.0405  -17.5499 H         1 <0>         0.0600 
     43 H6          6.9230   17.7479  -18.4288 H         1 <0>         0.0600 
     44 H7          8.1221   19.7435  -21.7627 H         1 <0>         0.0600 
     45 H8          8.1353   18.0555  -22.1929 H         1 <0>         0.0600 
     46 H9          6.9227   18.6857  -21.0554 H         1 <0>         0.0600 
     47 H10        14.2634    7.3591  -16.5041 H         1 <0>         0.1150 
     48 H11        13.8869    9.7523  -17.0789 H         1 <0>         0.1150 
     49 H12         7.3924    3.5003  -18.5648 H         1 <0>         0.1970 
     50 H13        12.5062    5.6776  -17.0004 H         1 <0>         0.1150 
     51 H14        11.7921   10.4471  -18.1674 H         1 <0>         0.1150 
     52 H15         9.7157    3.1787  -19.5301 H         1 <0>         0.0110 
     53 H16         6.9896    5.6379  -17.2573 H         1 <0>         0.0110 
     54 H17        11.6979   11.7557  -24.4609 H         1 <0>         0.0600 
     55 H18        12.1319   12.9026  -25.7063 H         1 <0>         0.0600 
     56 H19        12.9939   13.6097  -23.4649 H         1 <0>         0.0600 
     57 H20        11.8959   14.7924  -24.1288 H         1 <0>         0.0600 
     58 H21         9.7378   12.1938  -25.8930 H         1 <0>         0.0600 
     59 H22         9.8831   13.9160  -25.6373 H         1 <0>         0.0600 
     60 H23        11.2291   12.6820  -22.0256 H         1 <0>         0.0600 
     61 H24        11.3895   14.3986  -21.7633 H         1 <0>         0.0600 
     62 H25         8.1118   13.0036  -24.1974 H         1 <0>         0.0600 
     63 H26         9.2190   11.8225  -23.5154 H         1 <0>         0.0600 
     64 H27         5.3940   10.2269  -20.7084 H         1 <0>         0.0600 
     65 H28         5.6797    9.7605  -22.3815 H         1 <0>         0.0600 
     66 H29         6.1228   12.3101  -21.4541 H         1 <0>         0.0600 
     67 H30         7.0846   11.6034  -22.7495 H         1 <0>         0.0600 
     68 H31         7.8734    8.9515  -21.8750 H         1 <0>         0.0600 
     69 H32         9.4752   14.8356  -23.2879 H         1 <0>         0.0600 
     70 H33         7.7206   10.3608  -19.1823 H         1 <0>         0.0600 
     71 H34         9.7201   16.8574  -19.2267 H         1 <0>         0.0600 
     72 H35         7.5771   13.9600  -21.9418 H         1 <0>         0.0600 
     73 H36         8.6821   19.1914  -19.5302 H         1 <0>         0.3100 
     74 H37         9.8311   18.5348  -20.5379 H         1 <0>         0.3100 
     75 H38         8.9208    8.4875  -18.5389 H         1 <0>         0.3000 
     76 H39         9.8911   15.1337  -20.4939 H         1 <0>         0.3000 
@<TRIPOS>BOND
     1    1   21 1    
     2    1   38 1    
     3    1   39 1    
     4    1   40 1    
     5    2   24 1    
     6    2   41 1    
     7    2   42 1    
     8    2   43 1    
     9    3   31 1    
    10    3   44 1    
    11    3   45 1    
    12    3   46 1    
    13    4    5 ar   
    14    4    7 ar   
    15    4   47 1    
    16    5    8 ar   
    17    5   48 1    
    18    6    9 ar   
    19    6   10 ar   
    20    6   49 1    
    21    7   18 ar   
    22    7   50 1    
    23    8   19 ar   
    24    8   51 1    
    25    9   29 ar   
    26    9   52 1    
    27   10   30 ar   
    28   10   53 1    
    29   11   12 1    
    30   11   13 1    
    31   11   54 1    
    32   11   55 1    
    33   12   14 1    
    34   12   56 1    
    35   12   57 1    
    36   13   15 1    
    37   13   58 1    
    38   13   59 1    
    39   14   22 1    
    40   14   60 1    
    41   14   61 1    
    42   15   22 1    
    43   15   62 1    
    44   15   63 1    
    45   16   17 1    
    46   16   21 1    
    47   16   64 1    
    48   16   65 1    
    49   17   34 1    
    50   17   66 1    
    51   17   67 1    
    52   18   19 ar   
    53   18   20 1    
    54   19   32 1    
    55   20   29 ar   
    56   20   30 ar   
    57   21   23 1    
    58   21   68 1    
    59   22   25 1    
    60   22   69 1    
    61   23   26 1    
    62   23   34 1    
    63   23   70 1    
    64   24   27 1    
    65   24   31 1    
    66   24   71 1    
    67   25   28 1    
    68   25   33 1    
    69   25   72 1    
    70   26   32 am   BACKBONE|DICT|INTERRES
    71   26   35 2    
    72   27   33 am   BACKBONE|DICT|INTERRES
    73   27   36 2    
    74   28   34 am   BACKBONE|DICT|INTERRES
    75   28   37 2    
    76   31   73 1    
    77   31   74 1    
    78   32   75 1    
    79   33   76 1    
@<TRIPOS>SUBSTRUCTURE
     1 <0>         1 GROUP             0       ****    0 ROOT    
@<TRIPOS>MOLECULE
xiap-ligand
76   79    1
SMALL
USER_CHARGES


@<TRIPOS>ATOM
      1 C1          6.9170    8.2865  -19.7625 C.3       1 <0>        -0.1800 
      2 C2          8.8912   18.3900  -21.0678 C.3       1 <0>        -0.1800 
      3 C3          9.2448   16.9266  -18.4008 C.3       1 <0>         0.1100 
      4 C4         13.9566    8.0589  -18.0762 C.ar      1 <0>        -0.1150 
      5 C5         13.3837    9.0722  -17.2917 C.ar      1 <0>        -0.1150 
      6 C6         10.0798    6.2793  -22.7974 C.ar      1 <0>        -0.6890 
      7 C7         13.2643    7.5696  -19.1996 C.ar      1 <0>        -0.1150 
      8 C8         12.1219    9.5912  -17.6292 C.ar      1 <0>        -0.1150 
      9 C9         11.3645    6.8394  -22.9027 C.ar      1 <0>         0.6530 
     10 C10         9.4767    6.3490  -21.5288 C.ar      1 <0>         0.6530 
     11 C11        10.8021   13.5583  -25.0200 C.3       1 <0>        -0.1200 
     12 C12        11.0665   14.6917  -24.0192 C.3       1 <0>        -0.1200 
     13 C13         9.2957   13.3820  -25.2637 C.3       1 <0>        -0.1200 
     14 C14        10.3178   14.4413  -22.7027 C.3       1 <0>        -0.1200 
     15 C15         8.5400   13.1526  -23.9435 C.3       1 <0>        -0.1200 
     16 C16         6.0588   10.1433  -21.2439 C.3       1 <0>        -0.1200 
     17 C17         6.5289   11.5517  -21.5769 C.3       1 <0>        -0.0500 
     18 C18        11.9866    8.0693  -19.5423 C.ar      1 <0>        -0.0420 
     19 C19        11.4110    9.1061  -18.7494 C.ar      1 <0>         0.0850 
     20 C20        11.3058    7.4482  -20.6914 C.ar      1 <0>         0.8840 
     21 C21         7.2849    9.4370  -20.7043 C.3       1 <0>        -0.0600 
     22 C22         8.7940   14.2888  -22.9317 C.3       1 <0>        -0.0600 
     23 C23         8.1202   10.5617  -20.0541 C.3       1 <0>         0.0100 
     24 C24         7.7324   17.7769  -20.2669 C.3       1 <0>         0.2300 
     25 C25         7.9755   14.1618  -21.6109 C.3       1 <0>         0.1400 
     26 C26         9.6215   10.1891  -20.0860 C.2       1 <0>         0.5000 
     27 C27         7.2596   16.4789  -20.9244 C.2       1 <0>         0.5000 
     28 C28         8.3751   12.9876  -20.6818 C.2       1 <0>         0.5000 
     29 N1         11.9793    7.4105  -21.8484 N.ar      1 <0>        -0.8390 
     30 N2         10.0951    6.9229  -20.4801 N.ar      1 <0>        -0.8390 
     31 N3          8.0264   17.6569  -18.8176 N.4       1 <0>        -0.2000 
     32 N4         10.1104    9.6392  -18.9622 N.am      1 <0>        -0.3850 
     33 N5          8.0926   15.4257  -20.8770 N.am      1 <0>        -0.5000 
     34 N6          7.7435   11.7909  -20.7864 N.am      1 <0>        -0.1400 
     35 O1         10.2918   10.3724  -21.1021 O.2       1 <0>        -0.5000 
     36 O2          6.1642   16.4568  -21.4845 O.2       1 <0>        -0.5000 
     37 O3          9.2745   13.1762  -19.8552 O.2       1 <0>        -0.5000 
     38 H1          6.2689    8.6496  -18.9655 H         1 <0>         0.0600 
     39 H2          6.3825    7.4968  -20.2927 H         1 <0>         0.0600 
     40 H3          7.7955    7.8403  -19.2984 H         1 <0>         0.0600 
     41 H4          8.5546   18.7219  -22.0491 H         1 <0>         0.0600 
     42 H5          9.3118   19.2568  -20.5551 H         1 <0>         0.0600 
     43 H6          9.6835   17.6569  -21.2330 H         1 <0>         0.0600 
     44 H7          9.4311   17.1090  -17.3451 H         1 <0>         0.0600 
     45 H8          9.1421   15.8491  -18.5267 H         1 <0>         0.0600 
     46 H9         10.1230   17.2602  -18.9506 H         1 <0>         0.0600 
     47 H10        14.9200    7.6524  -17.8155 H         1 <0>         0.1150 
     48 H11        13.9106    9.4526  -16.4248 H         1 <0>         0.1150 
     49 H12         9.5880    5.8183  -23.6395 H         1 <0>         0.1970 
     50 H13        13.7065    6.7838  -19.7952 H         1 <0>         0.1150 
     51 H14        11.7075   10.3741  -17.0113 H         1 <0>         0.1150 
     52 H15        11.9064    6.8195  -23.8372 H         1 <0>         0.0110 
     53 H16         8.4930    5.9405  -21.3568 H         1 <0>         0.0110 
     54 H17        11.2240   12.6277  -24.6373 H         1 <0>         0.0600 
     55 H18        11.3107   13.7653  -25.9628 H         1 <0>         0.0600 
     56 H19        12.1363   14.7795  -23.8273 H         1 <0>         0.0600 
     57 H20        10.7544   15.6444  -24.4481 H         1 <0>         0.0600 
     58 H21         9.1227   12.5475  -25.9422 H         1 <0>         0.0600 
     59 H22         8.8992   14.2701  -25.7604 H         1 <0>         0.0600 
     60 H23        10.7226   13.5454  -22.2280 H         1 <0>         0.0600 
     61 H24        10.5220   15.2664  -22.0238 H         1 <0>         0.0600 
     62 H25         7.4748   13.0820  -24.1635 H         1 <0>         0.0600 
     63 H26         8.8486   12.1948  -23.5200 H         1 <0>         0.0600 
     64 H27         5.2955   10.2092  -20.4672 H         1 <0>         0.0600 
     65 H28         5.6115    9.6339  -22.0954 H         1 <0>         0.0600 
     66 H29         5.7305   12.2588  -21.3535 H         1 <0>         0.0600 
     67 H30         6.7490   11.6084  -22.6397 H         1 <0>         0.0600 
     68 H31         7.8340    9.0296  -21.5536 H         1 <0>         0.0600 
     69 H32         8.4515   15.2041  -23.4177 H         1 <0>         0.0600 
     70 H33         7.8058   10.7024  -19.0185 H         1 <0>         0.0600 
     71 H34         6.8979   18.4771  -20.3178 H         1 <0>         0.0600 
     72 H35         6.9247   14.0557  -21.8810 H         1 <0>         0.0600 
     73 H36         8.1232   18.6316  -18.5208 H         1 <0>         0.3100 
     74 H37         7.2170   17.2765  -18.3503 H         1 <0>         0.3100 
     75 H38         9.5032    9.6579  -18.1508 H         1 <0>         0.3000 
     76 H39         8.9752   15.5372  -20.3925 H         1 <0>         0.3000 
@<TRIPOS>BOND
     1    1   21 1    
     2    1   38 1    
     3    1   39 1    
     4    1   40 1    
     5    2   24 1    
     6    2   41 1    
     7    2   42 1    
     8    2   43 1    
     9    3   31 1    
    10    3   44 1    
    11    3   45 1    
    12    3   46 1    
    13    4    5 ar   
    14    4    7 ar   
    15    4   47 1    
    16    5    8 ar   
    17    5   48 1    
    18    6    9 ar   
    19    6   10 ar   
    20    6   49 1    
    21    7   18 ar   
    22    7   50 1    
    23    8   19 ar   
    24    8   51 1    
    25    9   29 ar   
    26    9   52 1    
    27   10   30 ar   
    28   10   53 1    
    29   11   12 1    
    30   11   13 1    
    31   11   54 1    
    32   11   55 1    
    33   12   14 1    
    34   12   56 1    
    35   12   57 1    
    36   13   15 1    
    37   13   58 1    
    38   13   59 1    
    39   14   22 1    
    40   14   60 1    
    41   14   61 1    
    42   15   22 1    
    43   15   62 1    
    44   15   63 1    
    45   16   17 1    
    46   16   21 1    
    47   16   64 1    
    48   16   65 1    
    49   17   34 1    
    50   17   66 1    
    51   17   67 1    
    52   18   19 ar   
    53   18   20 1    
    54   19   32 1    
    55   20   29 ar   
    56   20   30 ar   
    57   21   23 1    
    58   21   68 1    
    59   22   25 1    
    60   22   69 1    
    61   23   26 1    
    62   23   34 1    
    63   23   70 1    
    64   24   27 1    
    65   24   31 1    
    66   24   71 1    
    67   25   28 1    
    68   25   33 1    
    69   25   72 1    
    70   26   32 am   BACKBONE|DICT|INTERRES
    71   26   35 2    
    72   27   33 am   BACKBONE|DICT|INTERRES
    73   27   36 2    
    74   28   34 am   BACKBONE|DICT|INTERRES
    75   28   37 2    
    76   31   73 1    
    77   31   74 1    
    78   32   75 1    
    79   33   76 1    
@<TRIPOS>SUBSTRUCTURE
     1 <0>         1 GROUP             0       ****    0 ROOT    
@<TRIPOS>MOLECULE
xiap-ligand
76   79    1
SMALL
USER_CHARGES


@<TRIPOS>ATOM
      1 C1          6.7917    7.8379  -20.2084 C.3       1 <0>        -0.1800 
      2 C2          7.9766   17.2479  -18.4734 C.3       1 <0>        -0.1800 
      3 C3          7.5932   18.6523  -21.6761 C.3       1 <0>         0.1100 
      4 C4         13.2575    7.3289  -16.9405 C.ar      1 <0>        -0.1150 
      5 C5         13.2224    8.6191  -17.4997 C.ar      1 <0>        -0.1150 
      6 C6          7.7230    4.3516  -18.0320 C.ar      1 <0>        -0.6890 
      7 C7         12.1423    6.4792  -17.0650 C.ar      1 <0>        -0.1150 
      8 C8         12.0738    9.0555  -18.1857 C.ar      1 <0>        -0.1150 
      9 C9          8.7569    4.3493  -18.9842 C.ar      1 <0>         0.6530 
     10 C10         7.8585    5.2593  -16.9671 C.ar      1 <0>         0.6530 
     11 C11        11.3413   14.5346  -24.9828 C.3       1 <0>        -0.1200 
     12 C12         9.8273   14.5432  -25.2349 C.3       1 <0>        -0.1200 
     13 C13        11.7296   13.4230  -23.9952 C.3       1 <0>        -0.1200 
     14 C14         9.0540   14.6920  -23.9155 C.3       1 <0>        -0.1200 
     15 C15        10.9542   13.5486  -22.6725 C.3       1 <0>        -0.1200 
     16 C16         6.2472    9.8919  -21.6183 C.3       1 <0>        -0.1200 
     17 C17         6.8974   11.2571  -21.8324 C.3       1 <0>        -0.0500 
     18 C18        10.9853    6.9170  -17.7425 C.ar      1 <0>        -0.0420 
     19 C19        10.9458    8.2129  -18.3202 C.ar      1 <0>         0.0850 
     20 C20         9.8436    6.0043  -17.8317 C.ar      1 <0>         0.8840 
     21 C21         7.3394    9.0374  -21.0020 C.3       1 <0>        -0.0600 
     22 C22         9.4221   13.5790  -22.9058 C.3       1 <0>        -0.0600 
     23 C23         8.1679   10.0460  -20.1786 C.3       1 <0>         0.0100 
     24 C24         8.6338   17.1453  -19.8576 C.3       1 <0>         0.2300 
     25 C25         8.5736   13.6811  -21.6056 C.3       1 <0>         0.1400 
     26 C26         9.6091    9.5314  -19.9503 C.2       1 <0>         0.5000 
     27 C27         8.0848   15.9370  -20.6443 C.2       1 <0>         0.5000 
     28 C28         8.7598   12.4571  -20.6765 C.2       1 <0>         0.5000 
     29 N1          9.8141    5.1764  -18.8796 N.ar      1 <0>        -0.8390 
     30 N2          8.9231    6.0812  -16.8646 N.ar      1 <0>        -0.8390 
     31 N3          8.5500   18.4568  -20.5603 N.4       1 <0>        -0.2000 
     32 N4          9.7472    8.6828  -18.9208 N.am      1 <0>        -0.3850 
     33 N5          8.9140   14.9151  -20.8878 N.am      1 <0>        -0.5000 
     34 N6          8.0192   11.3368  -20.8878 N.am      1 <0>        -0.1400 
     35 O1         10.5230    9.8305  -20.7191 O.2       1 <0>        -0.5000 
     36 O2          6.9123   15.9312  -21.0109 O.2       1 <0>        -0.5000 
     37 O3          9.5850   12.5335  -19.7636 O.2       1 <0>        -0.5000 
     38 H1          6.1843    8.1646  -19.3634 H         1 <0>         0.0600 
     39 H2          6.1631    7.2126  -20.8413 H         1 <0>         0.0600 
     40 H3          7.5946    7.2090  -19.8241 H         1 <0>         0.0600 
     41 H4          8.0505   16.3105  -17.9214 H         1 <0>         0.0600 
     42 H5          8.4600   18.0201  -17.8693 H         1 <0>         0.0600 
     43 H6          6.9225   17.5053  -18.5524 H         1 <0>         0.0600 
     44 H7          7.7083   19.6555  -22.0837 H         1 <0>         0.0600 
     45 H8          7.7662   17.9543  -22.4953 H         1 <0>         0.0600 
     46 H9          6.5644   18.5526  -21.3248 H         1 <0>         0.0600 
     47 H10        14.1366    6.9945  -16.4083 H         1 <0>         0.1150 
     48 H11        14.0713    9.2797  -17.3951 H         1 <0>         0.1150 
     49 H12         6.8683    3.6969  -18.1182 H         1 <0>         0.1970 
     50 H13        12.1706    5.4905  -16.6316 H         1 <0>         0.1150 
     51 H14        12.0534   10.0568  -18.5835 H         1 <0>         0.1150 
     52 H15         8.7350    3.6838  -19.8345 H         1 <0>         0.0110 
     53 H16         7.1078    5.3320  -16.1932 H         1 <0>         0.0110 
     54 H17        11.6469   15.5042  -24.5882 H         1 <0>         0.0600 
     55 H18        11.8772   14.4007  -25.9248 H         1 <0>         0.0600 
     56 H19         9.5695   15.3634  -25.9070 H         1 <0>         0.0600 
     57 H20         9.5296   13.6218  -25.7381 H         1 <0>         0.0600 
     58 H21        12.8005   13.4620  -23.7970 H         1 <0>         0.0600 
     59 H22        11.5333   12.4484  -24.4434 H         1 <0>         0.0600 
     60 H23         9.2748   15.6690  -23.4870 H         1 <0>         0.0600 
     61 H24         7.9822   14.6765  -24.1139 H         1 <0>         0.0600 
     62 H25        11.2332   12.7157  -22.0215 H         1 <0>         0.0600 
     63 H26        11.2732   14.4567  -22.1643 H         1 <0>         0.0600 
     64 H27         5.4175    9.9985  -20.9166 H         1 <0>         0.0600 
     65 H28         5.8447    9.4682  -22.5389 H         1 <0>         0.0600 
     66 H29         6.1587   12.0425  -21.6657 H         1 <0>         0.0600 
     67 H30         7.2657   11.3418  -22.8562 H         1 <0>         0.0600 
     68 H31         7.9580    8.6590  -21.8192 H         1 <0>         0.0600 
     69 H32         9.1628   12.6317  -23.3810 H         1 <0>         0.0600 
     70 H33         7.6990   10.1900  -19.2026 H         1 <0>         0.0600 
     71 H34         9.7000   16.9774  -19.6915 H         1 <0>         0.0600 
     72 H35         7.5287   13.7344  -21.9041 H         1 <0>         0.0600 
     73 H36         8.3433   19.1711  -19.8609 H         1 <0>         0.3100 
     74 H37         9.4771   18.6418  -20.9246 H         1 <0>         0.3100 
     75 H38         8.8939    8.3841  -18.4743 H         1 <0>         0.3000 
     76 H39         9.8635   14.9675  -20.5219 H         1 <0>         0.3000 
@<TRIPOS>BOND
     1    1   21 1    
     2    1   38 1    
     3    1   39 1    
     4    1   40 1    
     5    2   24 1    
     6    2   41 1    
     7    2   42 1    
     8    2   43 1    
     9    3   31 1    
    10    3   44 1    
    11    3   45 1    
    12    3   46 1    
    13    4    5 ar   
    14    4    7 ar   
    15    4   47 1    
    16    5    8 ar   
    17    5   48 1    
    18    6    9 ar   
    19    6   10 ar   
    20    6   49 1    
    21    7   18 ar   
    22    7   50 1    
    23    8   19 ar   
    24    8   51 1    
    25    9   29 ar   
    26    9   52 1    
    27   10   30 ar   
    28   10   53 1    
    29   11   12 1    
    30   11   13 1    
    31   11   54 1    
    32   11   55 1    
    33   12   14 1    
    34   12   56 1    
    35   12   57 1    
    36   13   15 1    
    37   13   58 1    
    38   13   59 1    
    39   14   22 1    
    40   14   60 1    
    41   14   61 1    
    42   15   22 1    
    43   15   62 1    
    44   15   63 1    
    45   16   17 1    
    46   16   21 1    
    47   16   64 1    
    48   16   65 1    
    49   17   34 1    
    50   17   66 1    
    51   17   67 1    
    52   18   19 ar   
    53   18   20 1    
    54   19   32 1    
    55   20   29 ar   
    56   20   30 ar   
    57   21   23 1    
    58   21   68 1    
    59   22   25 1    
    60   22   69 1    
    61   23   26 1    
    62   23   34 1    
    63   23   70 1    
    64   24   27 1    
    65   24   31 1    
    66   24   71 1    
    67   25   28 1    
    68   25   33 1    
    69   25   72 1    
    70   26   32 am   BACKBONE|DICT|INTERRES
    71   26   35 2    
    72   27   33 am   BACKBONE|DICT|INTERRES
    73   27   36 2    
    74   28   34 am   BACKBONE|DICT|INTERRES
    75   28   37 2    
    76   31   73 1    
    77   31   74 1    
    78   32   75 1    
    79   33   76 1    
@<TRIPOS>SUBSTRUCTURE
     1 <0>         1 GROUP             0       ****    0 ROOT    
@<TRIPOS>MOLECULE
xiap-ligand
76   79    1
SMALL
USER_CHARGES


@<TRIPOS>ATOM
      1 C1          6.7656    7.7218  -20.2550 C.3       1 <0>        -0.1800 
      2 C2          7.9184   17.3759  -18.0980 C.3       1 <0>        -0.1800 
      3 C3          8.0543   18.6887  -21.4231 C.3       1 <0>         0.1100 
      4 C4         13.4242    7.3187  -17.3803 C.ar      1 <0>        -0.1150 
      5 C5         13.3200    8.6167  -17.9097 C.ar      1 <0>        -0.1150 
      6 C6          7.8324    4.3033  -17.7987 C.ar      1 <0>        -0.6890 
      7 C7         12.3030    6.4686  -17.3895 C.ar      1 <0>        -0.1150 
      8 C8         12.1011    9.0569  -18.4564 C.ar      1 <0>        -0.1150 
      9 C9          8.9538    4.0599  -18.6103 C.ar      1 <0>         0.6530 
     10 C10         7.8702    5.4735  -17.0231 C.ar      1 <0>         0.6530 
     11 C11        10.1104   15.1834  -24.9803 C.3       1 <0>        -0.1200 
     12 C12         8.5861   14.9946  -24.9946 C.3       1 <0>        -0.1200 
     13 C13        10.7918   14.0755  -24.1633 C.3       1 <0>        -0.1200 
     14 C14         8.0202   14.9534  -23.5652 C.3       1 <0>        -0.1200 
     15 C15        10.2375   14.0209  -22.7309 C.3       1 <0>        -0.1200 
     16 C16         6.0496    9.8258  -21.5007 C.3       1 <0>        -0.1200 
     17 C17         6.6253   11.2307  -21.6727 C.3       1 <0>        -0.0500 
     18 C18        11.0700    6.9143  -17.9146 C.ar      1 <0>        -0.0420 
     19 C19        10.9662    8.2162  -18.4707 C.ar      1 <0>         0.0850 
     20 C20         9.9295    5.9972  -17.8717 C.ar      1 <0>         0.8840 
     21 C21         7.2115    8.9945  -20.9936 C.3       1 <0>        -0.0600 
     22 C22         8.6962   13.8574  -22.7132 C.3       1 <0>        -0.0600 
     23 C23         8.0261    9.9937  -20.1488 C.3       1 <0>         0.0100 
     24 C24         8.6069   17.1553  -19.4541 C.3       1 <0>         0.2300 
     25 C25         8.1038   13.7647  -21.2780 C.3       1 <0>         0.1400 
     26 C26         9.4898    9.5212  -19.9926 C.2       1 <0>         0.5000 
     27 C27         7.8587   16.0594  -20.2458 C.2       1 <0>         0.5000 
     28 C28         8.4850   12.4573  -20.5455 C.2       1 <0>         0.5000 
     29 N1         10.0025    4.9042  -18.6357 N.ar      1 <0>        -0.8390 
     30 N2          8.9200    6.3173  -17.0577 N.ar      1 <0>        -0.8390 
     31 N3          8.7956   18.4558  -20.1628 N.4       1 <0>        -0.2000 
     32 N4          9.7187    8.6888  -18.9622 N.am      1 <0>        -0.3850 
     33 N5          8.5246   14.9200  -20.4748 N.am      1 <0>        -0.5000 
     34 N6          7.7876   11.3135  -20.7807 N.am      1 <0>        -0.1400 
     35 O1         10.3466    9.8440  -20.8166 O.2       1 <0>        -0.5000 
     36 O2          6.7108   16.2453  -20.6358 O.2       1 <0>        -0.5000 
     37 O3          9.4322   12.4970  -19.7623 O.2       1 <0>        -0.5000 
     38 H1          6.1820    7.9562  -19.3639 H         1 <0>         0.0600 
     39 H2          6.1419    7.1040  -20.9010 H         1 <0>         0.0600 
     40 H3          7.6165    7.1124  -19.9473 H         1 <0>         0.0600 
     41 H4          7.8120   16.4410  -17.5452 H         1 <0>         0.0600 
     42 H5          8.4878   18.0612  -17.4694 H         1 <0>         0.0600 
     43 H6          6.9229   17.7962  -18.2289 H         1 <0>         0.0600 
     44 H7          8.3020   19.6568  -21.8314 H         1 <0>         0.0600 
     45 H8          8.3125   17.9548  -22.1828 H         1 <0>         0.0600 
     46 H9          6.9759   18.6799  -21.2567 H         1 <0>         0.0600 
     47 H10        14.3576    6.9764  -16.9633 H         1 <0>         0.1150 
     48 H11        14.1688    9.2814  -17.8947 H         1 <0>         0.1150 
     49 H12         6.9930    3.6278  -17.7750 H         1 <0>         0.1970 
     50 H13        12.3838    5.4711  -16.9822 H         1 <0>         0.1150 
     51 H14        12.0353   10.0560  -18.8511 H         1 <0>         0.1150 
     52 H15         9.0131    3.1841  -19.2383 H         1 <0>         0.0110 
     53 H16         7.0515    5.7287  -16.3652 H         1 <0>         0.0110 
     54 H17        10.3589   16.1578  -24.5509 H         1 <0>         0.0600 
     55 H18        10.4991   15.1864  -25.9972 H         1 <0>         0.0600 
     56 H19         8.1191   15.8054  -25.5550 H         1 <0>         0.0600 
     57 H20         8.3342   14.0711  -25.5187 H         1 <0>         0.0600 
     58 H21        11.8678   14.2477  -24.1360 H         1 <0>         0.0600 
     59 H22        10.6431   13.1113  -24.6511 H         1 <0>         0.0600 
     60 H23         8.1668   15.9271  -23.1064 H         1 <0>         0.0600 
     61 H24         6.9429   14.7870  -23.6017 H         1 <0>         0.0600 
     62 H25        10.7154   13.2023  -22.1939 H         1 <0>         0.0600 
     63 H26        10.5227   14.9345  -22.2100 H         1 <0>         0.0600 
     64 H27         5.2617    9.8541  -20.7451 H         1 <0>         0.0600 
     65 H28         5.6096    9.4324  -22.4195 H         1 <0>         0.0600 
     66 H29         5.8639   11.9705  -21.4353 H         1 <0>         0.0600 
     67 H30         6.9389   11.3740  -22.7082 H         1 <0>         0.0600 
     68 H31         7.8067    8.7023  -21.8585 H         1 <0>         0.0600 
     69 H32         8.4841   12.9129  -23.2143 H         1 <0>         0.0600 
     70 H33         7.5867   10.0637  -19.1507 H         1 <0>         0.0600 
     71 H34         9.6147   16.8032  -19.2372 H         1 <0>         0.0600 
     72 H35         7.0174   13.8066  -21.3482 H         1 <0>         0.0600 
     73 H36         8.5223   19.2046  -19.5156 H         1 <0>         0.3100 
     74 H37         9.7876   18.5540  -20.3687 H         1 <0>         0.3100 
     75 H38         8.9056    8.3702  -18.4534 H         1 <0>         0.3000 
     76 H39         9.4810   14.8602  -20.1375 H         1 <0>         0.3000 
@<TRIPOS>BOND
     1    1   21 1    
     2    1   38 1    
     3    1   39 1    
     4    1   40 1    
     5    2   24 1    
     6    2   41 1    
     7    2   42 1    
     8    2   43 1    
     9    3   31 1    
    10    3   44 1    
    11    3   45 1    
    12    3   46 1    
    13    4    5 ar   
    14    4    7 ar   
    15    4   47 1    
    16    5    8 ar   
    17    5   48 1    
    18    6    9 ar   
    19    6   10 ar   
    20    6   49 1    
    21    7   18 ar   
    22    7   50 1    
    23    8   19 ar   
    24    8   51 1    
    25    9   29 ar   
    26    9   52 1    
    27   10   30 ar   
    28   10   53 1    
    29   11   12 1    
    30   11   13 1    
    31   11   54 1    
    32   11   55 1    
    33   12   14 1    
    34   12   56 1    
    35   12   57 1    
    36   13   15 1    
    37   13   58 1    
    38   13   59 1    
    39   14   22 1    
    40   14   60 1    
    41   14   61 1    
    42   15   22 1    
    43   15   62 1    
    44   15   63 1    
    45   16   17 1    
    46   16   21 1    
    47   16   64 1    
    48   16   65 1    
    49   17   34 1    
    50   17   66 1    
    51   17   67 1    
    52   18   19 ar   
    53   18   20 1    
    54   19   32 1    
    55   20   29 ar   
    56   20   30 ar   
    57   21   23 1    
    58   21   68 1    
    59   22   25 1    
    60   22   69 1    
    61   23   26 1    
    62   23   34 1    
    63   23   70 1    
    64   24   27 1    
    65   24   31 1    
    66   24   71 1    
    67   25   28 1    
    68   25   33 1    
    69   25   72 1    
    70   26   32 am   BACKBONE|DICT|INTERRES
    71   26   35 2    
    72   27   33 am   BACKBONE|DICT|INTERRES
    73   27   36 2    
    74   28   34 am   BACKBONE|DICT|INTERRES
    75   28   37 2    
    76   31   73 1    
    77   31   74 1    
    78   32   75 1    
    79   33   76 1    
@<TRIPOS>SUBSTRUCTURE
     1 <0>         1 GROUP             0       ****    0 ROOT    
@<TRIPOS>MOLECULE
xiap-ligand
76   79    1
SMALL
USER_CHARGES


@<TRIPOS>ATOM
      1 C1          6.9182    8.4223  -20.0553 C.3       1 <0>        -0.1800 
      2 C2          8.5223   18.6733  -21.0810 C.3       1 <0>        -0.1800 
      3 C3          9.3537   17.0304  -18.5155 C.3       1 <0>         0.1100 
      4 C4         13.9438    8.1187  -17.9267 C.ar      1 <0>        -0.1150 
      5 C5         13.3522    9.1518  -17.1815 C.ar      1 <0>        -0.1150 
      6 C6         10.1796    6.1934  -22.6783 C.ar      1 <0>        -0.6890 
      7 C7         13.2792    7.5970  -19.0512 C.ar      1 <0>        -0.1150 
      8 C8         12.0982    9.6556  -17.5629 C.ar      1 <0>        -0.1150 
      9 C9         11.4810    6.7179  -22.7585 C.ar      1 <0>         0.6530 
     10 C10         9.5307    6.3332  -21.4410 C.ar      1 <0>         0.6530 
     11 C11        10.5445   14.5648  -25.5281 C.3       1 <0>        -0.1200 
     12 C12        10.9728   13.5089  -24.5014 C.3       1 <0>        -0.1200 
     13 C13        10.0807   15.8492  -24.8291 C.3       1 <0>        -0.1200 
     14 C14         9.8465   13.2247  -23.4954 C.3       1 <0>        -0.1200 
     15 C15         8.9719   15.5640  -23.8071 C.3       1 <0>        -0.1200 
     16 C16         6.3432   10.2901  -21.6804 C.3       1 <0>        -0.1200 
     17 C17         6.9006   11.6857  -21.9278 C.3       1 <0>        -0.0500 
     18 C18        12.0071    8.0826  -19.4350 C.ar      1 <0>        -0.0420 
     19 C19        11.4127    9.1397  -18.6863 C.ar      1 <0>         0.0850 
     20 C20        11.3530    7.4270  -20.5806 C.ar      1 <0>         0.8840 
     21 C21         7.4494    9.5518  -20.9475 C.3       1 <0>        -0.0600 
     22 C22         9.4020   14.5097  -22.7539 C.3       1 <0>        -0.0600 
     23 C23         8.2321   10.6521  -20.1969 C.3       1 <0>         0.0100 
     24 C24         7.5925   17.8094  -20.2107 C.3       1 <0>         0.2300 
     25 C25         8.3004   14.2924  -21.6680 C.3       1 <0>         0.1400 
     26 C26         9.7222   10.2486  -20.1103 C.2       1 <0>         0.5000 
     27 C27         7.3089   16.5068  -20.9626 C.2       1 <0>         0.5000 
     28 C28         8.5631   13.0928  -20.7200 C.2       1 <0>         0.5000 
     29 N1         12.0657    7.3228  -21.7070 N.ar      1 <0>        -0.8390 
     30 N2         10.1221    6.9405  -20.3945 N.ar      1 <0>        -0.8390 
     31 N3          8.0466   17.6569  -18.8011 N.4       1 <0>        -0.2000 
     32 N4         10.1240    9.6784  -18.9625 N.am      1 <0>        -0.3850 
     33 N5          8.2083   15.5111  -20.8626 N.am      1 <0>        -0.5000 
     34 N6          7.9718   11.8945  -20.9545 N.am      1 <0>        -0.1400 
     35 O1         10.4704   10.4213  -21.0729 O.2       1 <0>        -0.5000 
     36 O2          6.3075   16.4538  -21.6758 O.2       1 <0>        -0.5000 
     37 O3          9.3227   13.2564  -19.7627 O.2       1 <0>        -0.5000 
     38 H1          6.1613    8.7904  -19.3622 H         1 <0>         0.0600 
     39 H2          6.4543    7.6382  -20.6546 H         1 <0>         0.0600 
     40 H3          7.7124    7.9638  -19.4686 H         1 <0>         0.0600 
     41 H4          7.9874   19.0515  -21.9534 H         1 <0>         0.0600 
     42 H5          8.9221   19.5406  -20.5626 H         1 <0>         0.0600 
     43 H6          9.3593   18.0915  -21.4605 H         1 <0>         0.0600 
     44 H7          9.6636   17.2793  -17.4992 H         1 <0>         0.0600 
     45 H8          9.3100   15.9428  -18.5697 H         1 <0>         0.0600 
     46 H9         10.1226   17.3885  -19.1987 H         1 <0>         0.0600 
     47 H10        14.9045    7.7226  -17.6334 H         1 <0>         0.1150 
     48 H11        13.8600    9.5598  -16.3200 H         1 <0>         0.1150 
     49 H12         9.7076    5.7100  -23.5201 H         1 <0>         0.1970 
     50 H13        13.7372    6.7952  -19.6127 H         1 <0>         0.1150 
     51 H14        11.6674   10.4565  -16.9824 H         1 <0>         0.1150 
     52 H15        12.0568    6.6486  -23.6695 H         1 <0>         0.0110 
     53 H16         8.5310    5.9518  -21.2876 H         1 <0>         0.0110 
     54 H17         9.7361   14.1707  -26.1457 H         1 <0>         0.0600 
     55 H18        11.3738   14.7871  -26.2011 H         1 <0>         0.0600 
     56 H19        11.2564   12.5878  -25.0110 H         1 <0>         0.0600 
     57 H20        11.8604   13.8541  -23.9688 H         1 <0>         0.0600 
     58 H21         9.7324   16.5705  -25.5682 H         1 <0>         0.0600 
     59 H22        10.9229   16.3169  -24.3197 H         1 <0>         0.0600 
     60 H23         9.0007   12.7819  -24.0222 H         1 <0>         0.0600 
     61 H24        10.2070   12.4719  -22.7955 H         1 <0>         0.0600 
     62 H25         8.7124   16.5077  -23.3332 H         1 <0>         0.0600 
     63 H26         8.0751   15.2240  -24.3257 H         1 <0>         0.0600 
     64 H27         5.4655   10.3738  -21.0374 H         1 <0>         0.0600 
     65 H28         6.0309    9.7905  -22.5983 H         1 <0>         0.0600 
     66 H29         6.1161   12.4289  -21.8186 H         1 <0>         0.0600 
     67 H30         7.2999   11.7536  -22.9384 H         1 <0>         0.0600 
     68 H31         8.0935    9.1098  -21.7112 H         1 <0>         0.0600 
     69 H32        10.2873   14.8930  -22.2406 H         1 <0>         0.0600 
     70 H33         7.8241   10.7878  -19.1947 H         1 <0>         0.0600 
     71 H34         6.6461   18.3492  -20.1374 H         1 <0>         0.0600 
     72 H35         7.3490   14.1614  -22.1824 H         1 <0>         0.0600 
     73 H36         8.1126   18.6261  -18.4832 H         1 <0>         0.3100 
     74 H37         7.3232   17.1973  -18.2696 H         1 <0>         0.3100 
     75 H38         9.4661    9.6911  -18.1939 H         1 <0>         0.3000 
     76 H39         9.0072   15.6523  -20.2546 H         1 <0>         0.3000 
@<TRIPOS>BOND
     1    1   21 1    
     2    1   38 1    
     3    1   39 1    
     4    1   40 1    
     5    2   24 1    
     6    2   41 1    
     7    2   42 1    
     8    2   43 1    
     9    3   31 1    
    10    3   44 1    
    11    3   45 1    
    12    3   46 1    
    13    4    5 ar   
    14    4    7 ar   
    15    4   47 1    
    16    5    8 ar   
    17    5   48 1    
    18    6    9 ar   
    19    6   10 ar   
    20    6   49 1    
    21    7   18 ar   
    22    7   50 1    
    23    8   19 ar   
    24    8   51 1    
    25    9   29 ar   
    26    9   52 1    
    27   10   30 ar   
    28   10   53 1    
    29   11   12 1    
    30   11   13 1    
    31   11   54 1    
    32   11   55 1    
    33   12   14 1    
    34   12   56 1    
    35   12   57 1    
    36   13   15 1    
    37   13   58 1    
    38   13   59 1    
    39   14   22 1    
    40   14   60 1    
    41   14   61 1    
    42   15   22 1    
    43   15   62 1    
    44   15   63 1    
    45   16   17 1    
    46   16   21 1    
    47   16   64 1    
    48   16   65 1    
    49   17   34 1    
    50   17   66 1    
    51   17   67 1    
    52   18   19 ar   
    53   18   20 1    
    54   19   32 1    
    55   20   29 ar   
    56   20   30 ar   
    57   21   23 1    
    58   21   68 1    
    59   22   25 1    
    60   22   69 1    
    61   23   26 1    
    62   23   34 1    
    63   23   70 1    
    64   24   27 1    
    65   24   31 1    
    66   24   71 1    
    67   25   28 1    
    68   25   33 1    
    69   25   72 1    
    70   26   32 am   BACKBONE|DICT|INTERRES
    71   26   35 2    
    72   27   33 am   BACKBONE|DICT|INTERRES
    73   27   36 2    
    74   28   34 am   BACKBONE|DICT|INTERRES
    75   28   37 2    
    76   31   73 1    
    77   31   74 1    
    78   32   75 1    
    79   33   76 1    
@<TRIPOS>SUBSTRUCTURE
     1 <0>         1 GROUP             0       ****    0 ROOT    
@<TRIPOS>MOLECULE
xiap-ligand
76   79    1
SMALL
USER_CHARGES


@<TRIPOS>ATOM
      1 C1          6.8971    8.3442  -19.7623 C.3       1 <0>        -0.1800 
      2 C2          9.1282   18.2754  -22.2551 C.3       1 <0>        -0.1800 
      3 C3          8.1774   17.6201  -18.5725 C.3       1 <0>         0.1100 
      4 C4         13.9710    8.1205  -17.9541 C.ar      1 <0>        -0.1150 
      5 C5         13.3850    9.1570  -17.2084 C.ar      1 <0>        -0.1150 
      6 C6         10.1623    6.1675  -22.6612 C.ar      1 <0>        -0.6890 
      7 C7         13.2976    7.5899  -19.0696 C.ar      1 <0>        -0.1150 
      8 C8         12.1225    9.6525  -17.5747 C.ar      1 <0>        -0.1150 
      9 C9          9.5300    6.2951  -21.4134 C.ar      1 <0>         0.6530 
     10 C10        11.4567    6.7051  -22.7562 C.ar      1 <0>         0.6530 
     11 C11        11.2039   12.8781  -24.8913 C.3       1 <0>        -0.1200 
     12 C12        11.5509   14.0433  -23.9527 C.3       1 <0>        -0.1200 
     13 C13         9.7048   12.8698  -25.2247 C.3       1 <0>        -0.1200 
     14 C14        10.6879   13.9990  -22.6834 C.3       1 <0>        -0.1200 
     15 C15         8.8470   12.8362  -23.9480 C.3       1 <0>        -0.1200 
     16 C16         6.0956   10.2404  -21.2353 C.3       1 <0>        -0.1200 
     17 C17         6.6350   11.6187  -21.5890 C.3       1 <0>        -0.0500 
     18 C18        12.0179    8.0654  -19.4385 C.ar      1 <0>        -0.0420 
     19 C19        11.4260    9.1197  -18.6826 C.ar      1 <0>         0.0850 
     20 C20        11.3552    7.4023  -20.5737 C.ar      1 <0>         0.8840 
     21 C21         7.2979    9.4914  -20.6941 C.3       1 <0>        -0.0600 
     22 C22         9.1775   14.0125  -23.0057 C.3       1 <0>        -0.0600 
     23 C23         8.1643   10.5864  -20.0371 C.3       1 <0>         0.0100 
     24 C24         8.2159   17.9017  -21.0692 C.3       1 <0>         0.2300 
     25 C25         8.2838   14.1061  -21.7292 C.3       1 <0>         0.1400 
     26 C26         9.6525   10.1719  -20.0598 C.2       1 <0>         0.5000 
     27 C27         7.6697   16.4942  -21.3529 C.2       1 <0>         0.5000 
     28 C28         8.5129   12.9919  -20.6799 C.2       1 <0>         0.5000 
     29 N1         10.1320    6.9022  -20.3721 N.ar      1 <0>        -0.8390 
     30 N2         12.0527    7.3083  -21.7097 N.ar      1 <0>        -0.8390 
     31 N3          8.9224   18.0564  -19.7720 N.4       1 <0>        -0.2000 
     32 N4         10.1240    9.6335  -18.9245 N.am      1 <0>        -0.3850 
     33 N5          8.4769   15.4380  -21.1413 N.am      1 <0>        -0.5000 
     34 N6          7.8444   11.8165  -20.7855 N.am      1 <0>        -0.1400 
     35 O1         10.3284   10.3154  -21.0788 O.2       1 <0>        -0.5000 
     36 O2          6.5331   16.3869  -21.8090 O.2       1 <0>        -0.5000 
     37 O3          9.3226   13.1927  -19.7721 O.2       1 <0>        -0.5000 
     38 H1          6.2597    8.7180  -18.9628 H         1 <0>         0.0600 
     39 H2          6.3398    7.5774  -20.3000 H         1 <0>         0.0600 
     40 H3          7.7643    7.8653  -19.3088 H         1 <0>         0.0600 
     41 H4          8.5651   18.2907  -23.1888 H         1 <0>         0.0600 
     42 H5          9.5931   19.2506  -22.1497 H         1 <0>         0.0600 
     43 H6          9.9393   17.5570  -22.3799 H         1 <0>         0.0600 
     44 H7          8.7046   17.9424  -17.6737 H         1 <0>         0.0600 
     45 H8          7.1841   18.0655  -18.5603 H         1 <0>         0.0600 
     46 H9          8.0728   16.5371  -18.5297 H         1 <0>         0.0600 
     47 H10        14.9348    7.7294  -17.6687 H         1 <0>         0.1150 
     48 H11        13.9003    9.5713  -16.3533 H         1 <0>         0.1150 
     49 H12         9.6823    5.6817  -23.4971 H         1 <0>         0.1970 
     50 H13        13.7546    6.7892  -19.6334 H         1 <0>         0.1150 
     51 H14        11.6914   10.4499  -16.9887 H         1 <0>         0.1150 
     52 H15         8.5350    5.9080  -21.2492 H         1 <0>         0.0110 
     53 H16        12.0202    6.6471  -23.6752 H         1 <0>         0.0110 
     54 H17        11.4801   11.9337  -24.4190 H         1 <0>         0.0600 
     55 H18        11.7902   12.9483  -25.8077 H         1 <0>         0.0600 
     56 H19        12.6072   14.0064  -23.6837 H         1 <0>         0.0600 
     57 H20        11.3984   14.9951  -24.4656 H         1 <0>         0.0600 
     58 H21         9.4697   12.0103  -25.8543 H         1 <0>         0.0600 
     59 H22         9.4557   13.7565  -25.8095 H         1 <0>         0.0600 
     60 H23        10.9507   13.1138  -22.1030 H         1 <0>         0.0600 
     61 H24        10.9223   14.8564  -22.0645 H         1 <0>         0.0600 
     62 H25         7.7966   12.8745  -24.2356 H         1 <0>         0.0600 
     63 H26         9.0125   11.8872  -23.4374 H         1 <0>         0.0600 
     64 H27         5.3374   10.3477  -20.4577 H         1 <0>         0.0600 
     65 H28         5.6263    9.7391  -22.0819 H         1 <0>         0.0600 
     66 H29         5.8922   12.3837  -21.3780 H         1 <0>         0.0600 
     67 H30         6.8597   11.6443  -22.6507 H         1 <0>         0.0600 
     68 H31         7.8344    9.0721  -21.5489 H         1 <0>         0.0600 
     69 H32         8.9845   14.9167  -23.5857 H         1 <0>         0.0600 
     70 H33         7.8468   10.7457  -19.0047 H         1 <0>         0.0600 
     71 H34         7.3717   18.5932  -21.0518 H         1 <0>         0.0600 
     72 H35         7.2490   14.0454  -22.0622 H         1 <0>         0.0600 
     73 H36         9.8273   17.6071  -19.8143 H         1 <0>         0.3100 
     74 H37         9.0565   19.0536  -19.6406 H         1 <0>         0.3100 
     75 H38         9.5058    9.6675  -18.1204 H         1 <0>         0.3000 
     76 H39         9.3860   15.5849  -20.7180 H         1 <0>         0.3000 
@<TRIPOS>BOND
     1    1   21 1    
     2    1   38 1    
     3    1   39 1    
     4    1   40 1    
     5    2   24 1    
     6    2   41 1    
     7    2   42 1    
     8    2   43 1    
     9    3   31 1    
    10    3   44 1    
    11    3   45 1    
    12    3   46 1    
    13    4    5 ar   
    14    4    7 ar   
    15    4   47 1    
    16    5    8 ar   
    17    5   48 1    
    18    6    9 ar   
    19    6   10 ar   
    20    6   49 1    
    21    7   18 ar   
    22    7   50 1    
    23    8   19 ar   
    24    8   51 1    
    25    9   29 ar   
    26    9   52 1    
    27   10   30 ar   
    28   10   53 1    
    29   11   12 1    
    30   11   13 1    
    31   11   54 1    
    32   11   55 1    
    33   12   14 1    
    34   12   56 1    
    35   12   57 1    
    36   13   15 1    
    37   13   58 1    
    38   13   59 1    
    39   14   22 1    
    40   14   60 1    
    41   14   61 1    
    42   15   22 1    
    43   15   62 1    
    44   15   63 1    
    45   16   17 1    
    46   16   21 1    
    47   16   64 1    
    48   16   65 1    
    49   17   34 1    
    50   17   66 1    
    51   17   67 1    
    52   18   19 ar   
    53   18   20 1    
    54   19   32 1    
    55   20   29 ar   
    56   20   30 ar   
    57   21   23 1    
    58   21   68 1    
    59   22   25 1    
    60   22   69 1    
    61   23   26 1    
    62   23   34 1    
    63   23   70 1    
    64   24   27 1    
    65   24   31 1    
    66   24   71 1    
    67   25   28 1    
    68   25   33 1    
    69   25   72 1    
    70   26   32 am   BACKBONE|DICT|INTERRES
    71   26   35 2    
    72   27   33 am   BACKBONE|DICT|INTERRES
    73   27   36 2    
    74   28   34 am   BACKBONE|DICT|INTERRES
    75   28   37 2    
    76   31   73 1    
    77   31   74 1    
    78   32   75 1    
    79   33   76 1    
@<TRIPOS>SUBSTRUCTURE
     1 <0>         1 GROUP             0       ****    0 ROOT    
@<TRIPOS>MOLECULE
xiap-ligand
76   79    1
SMALL
USER_CHARGES


@<TRIPOS>ATOM
      1 C1          6.8098    7.6505  -20.2325 C.3       1 <0>        -0.1800 
      2 C2          7.4720   16.9745  -18.2887 C.3       1 <0>        -0.1800 
      3 C3          8.0822   18.5749  -21.1008 C.3       1 <0>         0.1100 
      4 C4         13.4723    7.4352  -17.0304 C.ar      1 <0>        -0.1150 
      5 C5         13.3199    8.7132  -17.5921 C.ar      1 <0>        -0.1150 
      6 C6          8.0765    4.0832  -17.5501 C.ar      1 <0>        -0.6890 
      7 C7         12.4018    6.5233  -17.0698 C.ar      1 <0>        -0.1150 
      8 C8         12.1070    9.0697  -18.2099 C.ar      1 <0>        -0.1150 
      9 C9          9.3293    3.7843  -18.1109 C.ar      1 <0>         0.6530 
     10 C10         7.9231    5.3763  -17.0231 C.ar      1 <0>         0.6530 
     11 C11        11.5170   12.6232  -24.8236 C.3       1 <0>        -0.1200 
     12 C12        11.9361   13.6279  -23.7422 C.3       1 <0>        -0.1200 
     13 C13        10.0167   12.7414  -25.1297 C.3       1 <0>        -0.1200 
     14 C14        11.0903   13.4622  -22.4718 C.3       1 <0>        -0.1200 
     15 C15         9.1726   12.5755  -23.8567 C.3       1 <0>        -0.1200 
     16 C16         6.1626    9.8131  -21.4191 C.3       1 <0>        -0.1200 
     17 C17         6.8236   11.1719  -21.6310 C.3       1 <0>        -0.0500 
     18 C18        11.1689    6.8796  -17.6613 C.ar      1 <0>        -0.0420 
     19 C19        11.0262    8.1599  -18.2622 C.ar      1 <0>         0.0850 
     20 C20        10.0738    5.9002  -17.6262 C.ar      1 <0>         0.8840 
     21 C21         7.2971    8.9155  -20.9585 C.3       1 <0>        -0.0600 
     22 C22         9.5734   13.5884  -22.7625 C.3       1 <0>        -0.0600 
     23 C23         8.1687    9.8717  -20.1221 C.3       1 <0>         0.0100 
     24 C24         8.5284   16.7618  -19.3850 C.3       1 <0>         0.2300 
     25 C25         8.6551   13.5309  -21.5018 C.3       1 <0>         0.1400 
     26 C26         9.6014    9.3246  -19.9262 C.2       1 <0>         0.5000 
     27 C27         8.0590   15.6967  -20.3956 C.2       1 <0>         0.5000 
     28 C28         8.8359   12.2697  -20.6197 C.2       1 <0>         0.5000 
     29 N1         10.3256    4.6891  -18.1355 N.ar      1 <0>        -0.8390 
     30 N2          8.9228    6.2788  -17.0576 N.ar      1 <0>        -0.8390 
     31 N3          8.9213   18.0567  -19.9982 N.4       1 <0>        -0.2000 
     32 N4          9.7893    8.5543  -18.8392 N.am      1 <0>        -0.3850 
     33 N5          8.9217   14.7081  -20.6732 N.am      1 <0>        -0.5000 
     34 N6          8.0277   11.1879  -20.7888 N.am      1 <0>        -0.1400 
     35 O1         10.4792    9.5510  -20.7599 O.2       1 <0>        -0.5000 
     36 O2          6.9296   15.7651  -20.8880 O.2       1 <0>        -0.5000 
     37 O3          9.7225   12.2972  -19.7632 O.2       1 <0>        -0.5000 
     38 H1          6.2045    7.8978  -19.3619 H         1 <0>         0.0600 
     39 H2          6.1941    7.0417  -20.8934 H         1 <0>         0.0600 
     40 H3          7.6417    7.0266  -19.9017 H         1 <0>         0.0600 
     41 H4          7.2680   16.0471  -17.7530 H         1 <0>         0.0600 
     42 H5          7.8045   17.7083  -17.5550 H         1 <0>         0.0600 
     43 H6          6.5248   17.3155  -18.7043 H         1 <0>         0.0600 
     44 H7          8.4193   19.5756  -21.3645 H         1 <0>         0.0600 
     45 H8          8.1600   17.9597  -21.9978 H         1 <0>         0.0600 
     46 H9          7.0348   18.6383  -20.8036 H         1 <0>         0.0600 
     47 H10        14.4049    7.1583  -16.5590 H         1 <0>         0.1150 
     48 H11        14.1291    9.4262  -17.5517 H         1 <0>         0.1150 
     49 H12         7.2748    3.3617  -17.5325 H         1 <0>         0.1970 
     50 H13        12.5223    5.5472  -16.6243 H         1 <0>         0.1150 
     51 H14        12.0040   10.0567  -18.6277 H         1 <0>         0.1150 
     52 H15         9.5324    2.8121  -18.5394 H         1 <0>         0.0110 
     53 H16         6.9915    5.6827  -16.5675 H         1 <0>         0.0110 
     54 H17        11.7438   11.6113  -24.4884 H         1 <0>         0.0600 
     55 H18        12.0968   12.7896  -25.7295 H         1 <0>         0.0600 
     56 H19        12.9940   13.5011  -23.5020 H         1 <0>         0.0600 
     57 H20        11.8320   14.6451  -24.1201 H         1 <0>         0.0600 
     58 H21         9.7291   11.9889  -25.8643 H         1 <0>         0.0600 
     59 H22         9.8109   13.7111  -25.5824 H         1 <0>         0.0600 
     60 H23        11.3125   12.4966  -22.0160 H         1 <0>         0.0600 
     61 H24        11.4023   14.2207  -21.7626 H         1 <0>         0.0600 
     62 H25         8.1205   12.7055  -24.1148 H         1 <0>         0.0600 
     63 H26         9.2920   11.5577  -23.4814 H         1 <0>         0.0600 
     64 H27         5.4099    9.8967  -20.6324 H         1 <0>         0.0600 
     65 H28         5.6618    9.4421  -22.3148 H         1 <0>         0.0600 
     66 H29         6.1283   11.9726  -21.3696 H         1 <0>         0.0600 
     67 H30         7.0848   11.2756  -22.6804 H         1 <0>         0.0600 
     68 H31         7.8643    8.6096  -21.8435 H         1 <0>         0.0600 
     69 H32         9.4236   14.5774  -23.2007 H         1 <0>         0.0600 
     70 H33         7.7216    9.9946  -19.1341 H         1 <0>         0.0600 
     71 H34         9.4220   16.3922  -18.8796 H         1 <0>         0.0600 
     72 H35         7.6243   13.5839  -21.8497 H         1 <0>         0.0600 
     73 H36         8.8779   18.7675  -19.2727 H         1 <0>         0.3100 
     74 H37         9.8767   18.0060  -20.3385 H         1 <0>         0.3100 
     75 H38         8.9636    8.2711  -18.3274 H         1 <0>         0.3000 
     76 H39         9.8473   14.7598  -20.2432 H         1 <0>         0.3000 
@<TRIPOS>BOND
     1    1   21 1    
     2    1   38 1    
     3    1   39 1    
     4    1   40 1    
     5    2   24 1    
     6    2   41 1    
     7    2   42 1    
     8    2   43 1    
     9    3   31 1    
    10    3   44 1    
    11    3   45 1    
    12    3   46 1    
    13    4    5 ar   
    14    4    7 ar   
    15    4   47 1    
    16    5    8 ar   
    17    5   48 1    
    18    6    9 ar   
    19    6   10 ar   
    20    6   49 1    
    21    7   18 ar   
    22    7   50 1    
    23    8   19 ar   
    24    8   51 1    
    25    9   29 ar   
    26    9   52 1    
    27   10   30 ar   
    28   10   53 1    
    29   11   12 1    
    30   11   13 1    
    31   11   54 1    
    32   11   55 1    
    33   12   14 1    
    34   12   56 1    
    35   12   57 1    
    36   13   15 1    
    37   13   58 1    
    38   13   59 1    
    39   14   22 1    
    40   14   60 1    
    41   14   61 1    
    42   15   22 1    
    43   15   62 1    
    44   15   63 1    
    45   16   17 1    
    46   16   21 1    
    47   16   64 1    
    48   16   65 1    
    49   17   34 1    
    50   17   66 1    
    51   17   67 1    
    52   18   19 ar   
    53   18   20 1    
    54   19   32 1    
    55   20   29 ar   
    56   20   30 ar   
    57   21   23 1    
    58   21   68 1    
    59   22   25 1    
    60   22   69 1    
    61   23   26 1    
    62   23   34 1    
    63   23   70 1    
    64   24   27 1    
    65   24   31 1    
    66   24   71 1    
    67   25   28 1    
    68   25   33 1    
    69   25   72 1    
    70   26   32 am   BACKBONE|DICT|INTERRES
    71   26   35 2    
    72   27   33 am   BACKBONE|DICT|INTERRES
    73   27   36 2    
    74   28   34 am   BACKBONE|DICT|INTERRES
    75   28   37 2    
    76   31   73 1    
    77   31   74 1    
    78   32   75 1    
    79   33   76 1    
@<TRIPOS>SUBSTRUCTURE
     1 <0>         1 GROUP             0       ****    0 ROOT    
@<TRIPOS>MOLECULE
xiap-ligand
76   79    1
SMALL
USER_CHARGES


@<TRIPOS>ATOM
      1 C1          8.1382    8.0253  -19.1394 C.3       1 <0>        -0.1800 
      2 C2          8.7457   17.8277  -21.8874 C.3       1 <0>        -0.1800 
      3 C3          8.7571   17.4696  -18.0754 C.3       1 <0>         0.1100 
      4 C4         14.7569    8.4125  -22.3133 C.ar      1 <0>        -0.1150 
      5 C5         13.7464    8.9893  -23.0927 C.ar      1 <0>        -0.1150 
      6 C6         13.3501    8.4219  -16.0814 C.ar      1 <0>        -0.6890 
      7 C7         14.5756    8.2774  -20.9273 C.ar      1 <0>        -0.1150 
      8 C8         12.5506    9.4096  -22.4874 C.ar      1 <0>        -0.1150 
      9 C9         14.1212    7.5647  -16.8805 C.ar      1 <0>         0.6530 
     10 C10        12.5664    9.3607  -16.7683 C.ar      1 <0>         0.6530 
     11 C11         8.6110   12.2189  -25.6797 C.3       1 <0>        -0.1200 
     12 C12         9.3118   13.4988  -25.2007 C.3       1 <0>        -0.1200 
     13 C13         7.1773   12.1433  -25.1393 C.3       1 <0>        -0.1200 
     14 C14         9.2906   13.6012  -23.6678 C.3       1 <0>        -0.1200 
     15 C15         7.1567   12.2499  -23.6075 C.3       1 <0>        -0.1200 
     16 C16         6.4607    9.9398  -19.5959 C.3       1 <0>        -0.1200 
     17 C17         6.5828   11.3195  -20.2440 C.3       1 <0>        -0.0500 
     18 C18        13.3844    8.7052  -20.2848 C.ar      1 <0>        -0.0420 
     19 C19        12.3346    9.2553  -21.0920 C.ar      1 <0>         0.0850 
     20 C20        13.3247    8.5712  -18.7980 C.ar      1 <0>         0.8840 
     21 C21         7.7380    9.2261  -20.0076 C.3       1 <0>        -0.0600 
     22 C22         7.8428   13.5418  -23.1092 C.3       1 <0>        -0.0600 
     23 C23         8.7882   10.3511  -20.0446 C.3       1 <0>         0.0100 
     24 C24         8.0994   17.4956  -20.5286 C.3       1 <0>         0.2300 
     25 C25         7.7165   13.7712  -21.5686 C.3       1 <0>         0.1400 
     26 C26         9.9152    9.9743  -21.0314 C.2       1 <0>         0.5000 
     27 C27         7.7102   16.0018  -20.4005 C.2       1 <0>         0.5000 
     28 C28         8.5699   12.7314  -20.7987 C.2       1 <0>         0.5000 
     29 N1         14.1190    7.6548  -18.2247 N.ar      1 <0>        -0.8390 
     30 N2         12.5471    9.4190  -18.1125 N.ar      1 <0>        -0.8390 
     31 N3          8.9200   18.0549  -19.4227 N.4       1 <0>        -0.2000 
     32 N4         11.1030    9.6550  -20.4823 N.am      1 <0>        -0.3850 
     33 N5          8.1716   15.1444  -21.3257 N.am      1 <0>        -0.5000 
     34 N6          8.0182   11.5557  -20.4151 N.am      1 <0>        -0.1400 
     35 O1          9.6651    9.9417  -22.2356 O.2       1 <0>        -0.5000 
     36 O2          6.9277   15.6585  -19.5168 O.2       1 <0>        -0.5000 
     37 O3          9.7593   12.9642  -20.5971 O.2       1 <0>        -0.5000 
     38 H1          8.4960    8.3468  -18.1627 H         1 <0>         0.0600 
     39 H2          7.3003    7.3439  -18.9933 H         1 <0>         0.0600 
     40 H3          8.9470    7.4615  -19.6063 H         1 <0>         0.0600 
     41 H4          8.1037   17.5347  -22.7187 H         1 <0>         0.0600 
     42 H5          8.9234   18.8966  -21.9832 H         1 <0>         0.0600 
     43 H6          9.7058   17.3202  -22.0103 H         1 <0>         0.0600 
     44 H7          9.3306   18.0514  -17.3631 H         1 <0>         0.0600 
     45 H8          7.7154   17.4979  -17.7538 H         1 <0>         0.0600 
     46 H9          9.1260   16.4431  -18.0315 H         1 <0>         0.0600 
     47 H10        15.6756    8.0834  -22.7770 H         1 <0>         0.1150 
     48 H11        13.8862    9.1112  -24.1561 H         1 <0>         0.1150 
     49 H12        13.3654    8.3741  -15.0032 H         1 <0>         0.1970 
     50 H13        15.3835    7.8424  -20.3594 H         1 <0>         0.1150 
     51 H14        11.8179    9.8593  -23.1363 H         1 <0>         0.1150 
     52 H15        14.7644    6.8170  -16.4405 H         1 <0>         0.0110 
     53 H16        11.9494   10.0654  -16.2356 H         1 <0>         0.0110 
     54 H17         9.1746   11.3470  -25.3462 H         1 <0>         0.0600 
     55 H18         8.6002   12.1837  -26.7686 H         1 <0>         0.0600 
     56 H19        10.3405   13.5133  -25.5607 H         1 <0>         0.0600 
     57 H20         8.8248   14.3733  -25.6346 H         1 <0>         0.0600 
     58 H21         6.7093   11.2087  -25.4522 H         1 <0>         0.0600 
     59 H22         6.5802   12.9459  -25.5703 H         1 <0>         0.0600 
     60 H23         9.8908   12.7868  -23.2617 H         1 <0>         0.0600 
     61 H24         9.7864   14.5243  -23.3674 H         1 <0>         0.0600 
     62 H25         6.1230   12.2226  -23.2693 H         1 <0>         0.0600 
     63 H26         7.6437   11.3712  -23.1896 H         1 <0>         0.0600 
     64 H27         6.4331   10.0569  -18.5145 H         1 <0>         0.0600 
     65 H28         5.5559    9.4101  -19.8958 H         1 <0>         0.0600 
     66 H29         6.1087   12.0874  -19.6309 H         1 <0>         0.0600 
     67 H30         6.0915   11.3092  -21.2153 H         1 <0>         0.0600 
     68 H31         7.5645    8.8575  -21.0210 H         1 <0>         0.0600 
     69 H32         7.3004   14.3659  -23.5778 H         1 <0>         0.0600 
     70 H33         9.1991   10.5196  -19.0471 H         1 <0>         0.0600 
     71 H34         7.1527   18.0376  -20.4813 H         1 <0>         0.0600 
     72 H35         6.6688   13.7009  -21.2788 H         1 <0>         0.0600 
     73 H36         9.8944   18.0057  -19.6924 H         1 <0>         0.3100 
     74 H37         8.6541   19.0382  -19.3166 H         1 <0>         0.3100 
     75 H38        11.1441    9.6893  -19.4694 H         1 <0>         0.3000 
     76 H39         8.8595   15.4949  -21.9752 H         1 <0>         0.3000 
@<TRIPOS>BOND
     1    1   21 1    
     2    1   38 1    
     3    1   39 1    
     4    1   40 1    
     5    2   24 1    
     6    2   41 1    
     7    2   42 1    
     8    2   43 1    
     9    3   31 1    
    10    3   44 1    
    11    3   45 1    
    12    3   46 1    
    13    4    5 ar   
    14    4    7 ar   
    15    4   47 1    
    16    5    8 ar   
    17    5   48 1    
    18    6    9 ar   
    19    6   10 ar   
    20    6   49 1    
    21    7   18 ar   
    22    7   50 1    
    23    8   19 ar   
    24    8   51 1    
    25    9   29 ar   
    26    9   52 1    
    27   10   30 ar   
    28   10   53 1    
    29   11   12 1    
    30   11   13 1    
    31   11   54 1    
    32   11   55 1    
    33   12   14 1    
    34   12   56 1    
    35   12   57 1    
    36   13   15 1    
    37   13   58 1    
    38   13   59 1    
    39   14   22 1    
    40   14   60 1    
    41   14   61 1    
    42   15   22 1    
    43   15   62 1    
    44   15   63 1    
    45   16   17 1    
    46   16   21 1    
    47   16   64 1    
    48   16   65 1    
    49   17   34 1    
    50   17   66 1    
    51   17   67 1    
    52   18   19 ar   
    53   18   20 1    
    54   19   32 1    
    55   20   29 ar   
    56   20   30 ar   
    57   21   23 1    
    58   21   68 1    
    59   22   25 1    
    60   22   69 1    
    61   23   26 1    
    62   23   34 1    
    63   23   70 1    
    64   24   27 1    
    65   24   31 1    
    66   24   71 1    
    67   25   28 1    
    68   25   33 1    
    69   25   72 1    
    70   26   32 am   BACKBONE|DICT|INTERRES
    71   26   35 2    
    72   27   33 am   BACKBONE|DICT|INTERRES
    73   27   36 2    
    74   28   34 am   BACKBONE|DICT|INTERRES
    75   28   37 2    
    76   31   73 1    
    77   31   74 1    
    78   32   75 1    
    79   33   76 1    
@<TRIPOS>SUBSTRUCTURE
     1 <0>         1 GROUP             0       ****    0 ROOT    
