
##########                                Name:          4HI_1_3CCW
##########                    Molecular_Weight:             496.559
##########                DOCK_Rotatable_Bonds:                  15
##########                       Formal_Charge:             -0.9998
##########                     HBond_Acceptors:                   9
##########                        HBond_Donors:                   3
##########                         Heavy_Atoms:                  36
##########                            HA_RMSDs:               0.312
##########                            HA_RMSDh:               0.312
##########                            HA_RMSDm:               0.312
##########                          Grid_Score:           50.961761
##########                     Grid_vdw_energy:          -59.338814
##########                      Grid_es_energy:          110.300575
##########           Internal_energy_repulsive:           20.092319

@<TRIPOS>MOLECULE
4HI_1_3CCW
 67 69 1 0 0
SMALL
USER_CHARGES


@<TRIPOS>ATOM
      1 C1        -14.5208    4.6412   46.1788 C.3     1  <0>        -0.0574
      2 C2        -15.3177    5.3036   43.8543 C.3     1  <0>        -0.0574
      3 C3        -19.7802    3.3745   50.4555 C.ar    1  <0>        -0.0617
      4 C4        -20.8833    4.0571   49.9532 C.ar    1  <0>        -0.0615
      5 C5        -18.5161    3.9527   50.3848 C.ar    1  <0>        -0.0615
      6 C6        -20.7155    5.3153   49.3816 C.ar    1  <0>        -0.0571
      7 C7        -18.3506    5.2103   49.8092 C.ar    1  <0>        -0.0571
      8 C8        -12.5564   10.1642   47.0688 C.ar    1  <0>        -0.0486
      9 C9        -14.1721   11.3070   45.6761 C.ar    1  <0>        -0.0486
     10 C10       -11.7963   11.3282   47.1488 C.ar    1  <0>        -0.0258
     11 C11       -13.4104   12.4712   45.7612 C.ar    1  <0>        -0.0258
     12 C12       -13.1105    8.1005   43.5520 C.3     1  <0>        -0.0106
     13 C13       -12.9970    7.4360   44.9298 C.3     1  <0>         0.0208
     14 C14       -19.3305    7.2607   48.6769 C.3     1  <0>         0.0372
     15 C15       -12.4910    8.1921   41.1376 C.3     1  <0>        -0.0003
     16 C16       -13.1576    9.9660   39.5200 C.3     1  <0>         0.0130
     17 C17       -19.4572    5.8894   49.3019 C.ar    1  <0>        -0.0303
     18 C18       -13.7315   10.1504   46.3155 C.ar    1  <0>         0.0154
     19 C19       -12.2240   12.4839   46.4984 C.ar    1  <0>         0.1234
     20 C20       -15.3166    6.9214   45.7882 C.2     1  <0>         0.0452
     21 C21       -16.2575    7.6491   46.5110 C.2     1  <0>         0.1449
     22 C22       -14.5525    8.9225   46.2251 C.2     1  <0>         0.1334
     23 C23       -15.4772    5.5060   45.3578 C.3     1  <0>        -0.0060
     24 C24       -12.0014    7.8052   42.5304 C.3     1  <0>         0.0590
     25 C25       -12.7355    9.6887   40.9587 C.3     1  <0>         0.0626
     26 C26       -13.8114   11.3267   39.4073 C.2     1  <0>         0.0442
     27 C27       -17.5853    7.1269   46.9091 C.2     1  <0>         0.2642
     28 N1        -15.7774    8.8655   46.7606 N.2     1  <0>        -0.2249
     29 N2        -17.9963    7.4417   48.1326 N.am    1  <0>        -0.3059
     30 N3        -14.2490    7.7381   45.6401 N.pl3   1  <0>        -0.2858
     31 O1        -11.6641    6.4246   42.4659 O.3     1  <0>        -0.3916
     32 O2        -11.5466   10.3970   41.2219 O.3     1  <0>        -0.3913
     33 O3        -13.1698   12.2584   38.8556 O.co2   1  <0>        -0.5497
     34 O4        -14.9668   11.4597   39.8816 O.co2   1  <0>        -0.5497
     35 O5        -18.3448    6.6622   46.0630 O.2     1  <0>        -0.2685
     36 F1        -11.4873   13.6098   46.5750 F       1  <0>        -0.2055
     37 H1        -14.6826    4.8304   47.2502 H       1  <0>         0.0236
     38 H2        -14.7090    3.5794   45.9617 H       1  <0>         0.0236
     39 H3        -13.4826    4.8912   45.9151 H       1  <0>         0.0236
     40 H4        -16.0293    5.9498   43.3193 H       1  <0>         0.0236
     41 H5        -14.2911    5.5634   43.5564 H       1  <0>         0.0236
     42 H6        -15.5175    4.2515   43.6029 H       1  <0>         0.0236
     43 H7        -19.9044    2.3978   50.8995 H       1  <0>         0.0618
     44 H8        -21.8662    3.6126   50.0065 H       1  <0>         0.0618
     45 H9        -17.6601    3.4241   50.7776 H       1  <0>         0.0618
     46 H10       -21.5728    5.8480   48.9974 H       1  <0>         0.0621
     47 H11       -17.3689    5.6574   49.7563 H       1  <0>         0.0621
     48 H12       -12.2371    9.2731   47.5888 H       1  <0>         0.0625
     49 H13       -15.0970   11.3017   45.1185 H       1  <0>         0.0625
     50 H14       -10.8763   11.3353   47.7144 H       1  <0>         0.0646
     51 H15       -13.7388   13.3670   45.2552 H       1  <0>         0.0646
     52 H16       -14.0553    7.7549   43.1072 H       1  <0>         0.0305
     53 H17       -13.1093    9.1876   43.7201 H       1  <0>         0.0305
     54 H18       -12.8663    6.3490   44.8241 H       1  <0>         0.0469
     55 H19       -12.1342    7.8374   45.4816 H       1  <0>         0.0469
     56 H20       -20.0687    7.3596   47.8674 H       1  <0>         0.0512
     57 H21       -19.5162    8.0271   49.4439 H       1  <0>         0.0512
     58 H22       -11.7254    7.8838   40.4106 H       1  <0>         0.0315
     59 H23       -13.4407    7.6684   40.9537 H       1  <0>         0.0315
     60 H24       -12.2682    9.9400   38.8732 H       1  <0>         0.0350
     61 H25       -13.8746    9.1953   39.2010 H       1  <0>         0.0350
     62 H26       -16.5134    5.1937   45.5547 H       1  <0>         0.0357
     63 H27       -11.1199    8.3795   42.8511 H       1  <0>         0.0594
     64 H28       -13.5256   10.0097   41.6535 H       1  <0>         0.0598
     65 H29       -17.3151    7.8458   48.7432 H       1  <0>         0.1494
     66 H30       -10.9492    6.3012   41.8525 H       1  <0>         0.2098
     67 H31       -11.6791   11.3192   41.0362 H       1  <0>         0.2098
@<TRIPOS>BOND
     1     1    23    1
     2     2    23    1
     3     3     4   ar
     4     3     5   ar
     5     4     6   ar
     6     5     7   ar
     7     6    17   ar
     8     7    17   ar
     9     8    10   ar
    10     8    18   ar
    11     9    11   ar
    12     9    18   ar
    13    10    19   ar
    14    11    19   ar
    15    12    13    1
    16    12    24    1
    17    13    30    1
    18    14    17    1
    19    14    29    1
    20    15    24    1
    21    15    25    1
    22    16    25    1
    23    16    26    1
    24    18    22    1
    25    19    36    1
    26    20    21    2
    27    20    23    1
    28    20    30    1
    29    21    27    1
    30    21    28    1
    31    22    28    2
    32    22    30    1
    33    24    31    1
    34    25    32    1
    35    26    33    1
    36    26    34    2
    37    27    29   am
    38    27    35    2
    39     1    37    1
    40     1    38    1
    41     1    39    1
    42     2    40    1
    43     2    41    1
    44     2    42    1
    45     3    43    1
    46     4    44    1
    47     5    45    1
    48     6    46    1
    49     7    47    1
    50     8    48    1
    51     9    49    1
    52    10    50    1
    53    11    51    1
    54    12    52    1
    55    12    53    1
    56    13    54    1
    57    13    55    1
    58    14    56    1
    59    14    57    1
    60    15    58    1
    61    15    59    1
    62    16    60    1
    63    16    61    1
    64    23    62    1
    65    24    63    1
    66    25    64    1
    67    29    65    1
    68    31    66    1
    69    32    67    1
@<TRIPOS>SUBSTRUCTURE
     1 <0>         1 TEMP              0 ****  ****    0 ROOT

