
##########                                Name:          4HI_1_3CCW
##########                    Molecular_Weight:             496.559
##########                DOCK_Rotatable_Bonds:                  15
##########                       Formal_Charge:             -0.9998
##########                     HBond_Acceptors:                   9
##########                        HBond_Donors:                   3
##########                         Heavy_Atoms:                  36
##########                            HA_RMSDs:              12.061
##########                            HA_RMSDh:              10.952
##########                            HA_RMSDm:               8.708
##########                          Grid_Score:            1.423771
##########                     Grid_vdw_energy:          -37.642567
##########                      Grid_es_energy:           39.066338
##########           Internal_energy_repulsive:           19.235264

@<TRIPOS>MOLECULE
4HI_1_3CCW
 67 69 1 0 0
SMALL
USER_CHARGES


@<TRIPOS>ATOM
      1 C1        -20.4208    4.3658   49.7363 C.3     1  <0>        -0.0574
      2 C2        -19.7953    4.0158   52.1782 C.3     1  <0>        -0.0574
      3 C3        -15.0830    4.5170   45.4620 C.ar    1  <0>        -0.0617
      4 C4        -13.9697    4.9120   46.1965 C.ar    1  <0>        -0.0615
      5 C5        -16.3323    5.0575   45.7522 C.ar    1  <0>        -0.0615
      6 C6        -14.1126    5.8461   47.2189 C.ar    1  <0>        -0.0571
      7 C7        -16.4730    5.9893   46.7780 C.ar    1  <0>        -0.0571
      8 C8        -22.1099    9.9477   50.9392 C.ar    1  <0>        -0.0486
      9 C9        -20.6996   10.2461   52.8829 C.ar    1  <0>        -0.0486
     10 C10       -22.8318   11.0877   51.2833 C.ar    1  <0>        -0.0258
     11 C11       -21.4223   11.3885   53.2223 C.ar    1  <0>        -0.0258
     12 C12       -21.9527    6.6163   53.4330 C.3     1  <0>        -0.0106
     13 C13       -21.9661    6.5208   51.9022 C.3     1  <0>         0.0208
     14 C14       -15.4559    7.3945   48.6320 C.3     1  <0>         0.0372
     15 C15       -22.6787    5.7745   55.6659 C.3     1  <0>        -0.0003
     16 C16       -22.5040    6.8638   57.8998 C.3     1  <0>         0.0130
     17 C17       -15.3563    6.3791   47.5157 C.ar    1  <0>        -0.0303
     18 C18       -21.0590    9.5177   51.7511 C.ar    1  <0>         0.0154
     19 C19       -22.4868   11.8115   52.4229 C.ar    1  <0>         0.1234
     20 C20       -19.6026    6.2615   51.0485 C.2     1  <0>         0.0452
     21 C21       -18.5912    7.1633   50.7299 C.2     1  <0>         0.1449
     22 C22       -20.2793    8.3111   51.3959 C.2     1  <0>         0.1334
     23 C23       -19.5117    4.7846   50.8917 C.3     1  <0>        -0.0060
     24 C24       -23.0745    5.8961   54.1970 C.3     1  <0>         0.0590
     25 C25       -22.5889    7.1116   56.3977 C.3     1  <0>         0.0626
     26 C26       -21.7539    7.9858   58.5854 C.2     1  <0>         0.0442
     27 C27       -17.2513    6.7694   50.2365 C.2     1  <0>         0.2642
     28 N1        -19.0194    8.4037   50.9548 N.2     1  <0>        -0.2249
     29 N2        -16.8058    7.4197   49.1671 N.am    1  <0>        -0.3059
     30 N3        -20.6567    7.0103   51.4448 N.pl3   1  <0>        -0.2858
     31 O1        -23.2955    4.5699   53.7318 O.3     1  <0>        -0.3916
     32 O2        -23.7437    7.8740   56.1334 O.3     1  <0>        -0.3913
     33 O3        -22.4058    8.8091   59.2793 O.co2   1  <0>        -0.5497
     34 O4        -20.5104    8.0435   58.4184 O.co2   1  <0>        -0.5497
     35 O5        -16.5156    6.0767   50.9347 O.2     1  <0>        -0.2685
     36 F1        -23.1867   12.9139   52.7562 F       1  <0>        -0.2055
     37 H1        -20.1696    4.9524   48.8403 H       1  <0>         0.0236
     38 H2        -20.2768    3.2958   49.5260 H       1  <0>         0.0236
     39 H3        -21.4702    4.5478   50.0111 H       1  <0>         0.0236
     40 H4        -19.1129    4.3596   52.9695 H       1  <0>         0.0236
     41 H5        -20.8356    4.1925   52.4891 H       1  <0>         0.0236
     42 H6        -19.6422    2.9405   52.0039 H       1  <0>         0.0236
     43 H7        -14.9782    3.7923   44.6681 H       1  <0>         0.0618
     44 H8        -12.9982    4.4958   45.9744 H       1  <0>         0.0618
     45 H9        -17.1962    4.7531   45.1799 H       1  <0>         0.0618
     46 H10       -13.2471    6.1576   47.7849 H       1  <0>         0.0621
     47 H11       -17.4432    6.4080   47.0008 H       1  <0>         0.0621
     48 H12       -22.3628    9.3969   50.0453 H       1  <0>         0.0625
     49 H13       -19.8671    9.9279   53.4930 H       1  <0>         0.0625
     50 H14       -23.6582   11.4105   50.6675 H       1  <0>         0.0646
     51 H15       -21.1582   11.9490   54.1070 H       1  <0>         0.0646
     52 H16       -21.0024    6.1784   53.7724 H       1  <0>         0.0305
     53 H17       -22.0268    7.6840   53.6875 H       1  <0>         0.0305
     54 H18       -22.1219    5.4800   51.5822 H       1  <0>         0.0469
     55 H19       -22.7756    7.1374   51.4845 H       1  <0>         0.0469
     56 H20       -14.7533    7.1222   49.4333 H       1  <0>         0.0512
     57 H21       -15.2029    8.3905   48.2395 H       1  <0>         0.0512
     58 H22       -23.4377    5.1603   56.1725 H       1  <0>         0.0315
     59 H23       -21.6901    5.2946   55.7126 H       1  <0>         0.0315
     60 H24       -23.5219    6.8071   58.3128 H       1  <0>         0.0350
     61 H25       -21.9748    5.9162   58.0783 H       1  <0>         0.0350
     62 H26       -18.4711    4.5193   50.6531 H       1  <0>         0.0357
     63 H27       -23.9876    6.4906   54.0456 H       1  <0>         0.0594
     64 H28       -21.6951    7.6516   56.0520 H       1  <0>         0.0598
     65 H29       -17.4699    7.9863   48.6793 H       1  <0>         0.1494
     66 H30       -24.0692    4.2117   54.1508 H       1  <0>         0.2098
     67 H31       -23.6693    8.7202   56.5588 H       1  <0>         0.2098
@<TRIPOS>BOND
     1     1    23    1
     2     2    23    1
     3     3     4   ar
     4     3     5   ar
     5     4     6   ar
     6     5     7   ar
     7     6    17   ar
     8     7    17   ar
     9     8    10   ar
    10     8    18   ar
    11     9    11   ar
    12     9    18   ar
    13    10    19   ar
    14    11    19   ar
    15    12    13    1
    16    12    24    1
    17    13    30    1
    18    14    17    1
    19    14    29    1
    20    15    24    1
    21    15    25    1
    22    16    25    1
    23    16    26    1
    24    18    22    1
    25    19    36    1
    26    20    21    2
    27    20    23    1
    28    20    30    1
    29    21    27    1
    30    21    28    1
    31    22    28    2
    32    22    30    1
    33    24    31    1
    34    25    32    1
    35    26    33    1
    36    26    34    2
    37    27    29   am
    38    27    35    2
    39     1    37    1
    40     1    38    1
    41     1    39    1
    42     2    40    1
    43     2    41    1
    44     2    42    1
    45     3    43    1
    46     4    44    1
    47     5    45    1
    48     6    46    1
    49     7    47    1
    50     8    48    1
    51     9    49    1
    52    10    50    1
    53    11    51    1
    54    12    52    1
    55    12    53    1
    56    13    54    1
    57    13    55    1
    58    14    56    1
    59    14    57    1
    60    15    58    1
    61    15    59    1
    62    16    60    1
    63    16    61    1
    64    23    62    1
    65    24    63    1
    66    25    64    1
    67    29    65    1
    68    31    66    1
    69    32    67    1
@<TRIPOS>SUBSTRUCTURE
     1 <0>         1 TEMP              0 ****  ****    0 ROOT

