
##########                                Name:          4HI_1_3CCW
##########                    Molecular_Weight:             496.559
##########                DOCK_Rotatable_Bonds:                  15
##########                       Formal_Charge:             -0.9998
##########                     HBond_Acceptors:                   9
##########                        HBond_Donors:                   3
##########                         Heavy_Atoms:                  36
##########                            HA_RMSDs:              11.168
##########                            HA_RMSDh:               8.893
##########                            HA_RMSDm:               7.687
##########                          Grid_Score:           10.443939
##########                     Grid_vdw_energy:          -39.354053
##########                      Grid_es_energy:           49.797993
##########           Internal_energy_repulsive:           18.626871

@<TRIPOS>MOLECULE
4HI_1_3CCW
 67 69 1 0 0
SMALL
USER_CHARGES


@<TRIPOS>ATOM
      1 C1        -17.8926    7.2802   46.9906 C.3     1  <0>        -0.0574
      2 C2        -17.4448    5.4084   48.6558 C.3     1  <0>        -0.0574
      3 C3        -12.2882   10.4428   45.4747 C.ar    1  <0>        -0.0617
      4 C4        -11.4984   10.3426   46.6154 C.ar    1  <0>        -0.0615
      5 C5        -13.6507   10.7000   45.5955 C.ar    1  <0>        -0.0615
      6 C6        -12.0767   10.4998   47.8720 C.ar    1  <0>        -0.0571
      7 C7        -14.2274   10.8534   46.8541 C.ar    1  <0>        -0.0571
      8 C8        -21.3627    9.8772   51.0200 C.ar    1  <0>        -0.0486
      9 C9        -20.0949    9.3134   53.0026 C.ar    1  <0>        -0.0486
     10 C10       -22.4150   10.3237   51.8153 C.ar    1  <0>        -0.0258
     11 C11       -21.1488    9.7643   53.7955 C.ar    1  <0>        -0.0258
     12 C12       -20.3302    5.9948   50.6665 C.3     1  <0>        -0.0106
     13 C13       -20.2039    7.0148   49.5279 C.3     1  <0>         0.0208
     14 C14       -14.0113   10.9156   49.3831 C.3     1  <0>         0.0372
     15 C15       -21.1729    3.8266   51.5666 C.3     1  <0>        -0.0003
     16 C16       -21.2975    3.0585   53.9335 C.3     1  <0>         0.0130
     17 C17       -13.4341   10.7471   47.9954 C.ar    1  <0>        -0.0303
     18 C18       -20.2138    9.3537   51.6152 C.ar    1  <0>         0.0154
     19 C19       -22.3081   10.2713   53.2036 C.ar    1  <0>         0.1234
     20 C20       -17.8060    7.7961   49.3805 C.2     1  <0>         0.0452
     21 C21       -17.0832    8.8050   50.0107 C.2     1  <0>         0.1449
     22 C22       -19.0851    8.8799   50.7834 C.2     1  <0>         0.1334
     23 C23       -17.2697    6.8884   48.3305 C.3     1  <0>        -0.0060
     24 C24       -21.4303    4.9292   50.5433 C.3     1  <0>         0.0590
     25 C25       -21.3286    4.2770   53.0173 C.3     1  <0>         0.0626
     26 C26       -20.7168    3.4196   55.2840 C.2     1  <0>         0.0442
     27 C27       -15.6500    9.0820   49.7595 C.2     1  <0>         0.2642
     28 N1        -17.8763    9.4479   50.8653 N.2     1  <0>        -0.2249
     29 N2        -15.3413   10.3357   49.4462 N.am    1  <0>        -0.3059
     30 N3        -19.0639    7.8789   49.8700 N.pl3   1  <0>        -0.2858
     31 O1        -21.4450    4.2962   49.2693 O.3     1  <0>        -0.3916
     32 O2        -22.5667    4.9290   53.1799 O.3     1  <0>        -0.3913
     33 O3        -21.4784    3.4183   56.2861 O.co2   1  <0>        -0.5497
     34 O4        -19.4965    3.7128   55.3347 O.co2   1  <0>        -0.5497
     35 O5        -14.7968    8.2585   50.0797 O.2     1  <0>        -0.2685
     36 F1        -23.3273   10.7023   53.9728 F       1  <0>        -0.2055
     37 H1        -17.7347    8.3541   46.8124 H       1  <0>         0.0236
     38 H2        -17.4199    6.7014   46.1835 H       1  <0>         0.0236
     39 H3        -18.9715    7.0669   47.0117 H       1  <0>         0.0236
     40 H4        -16.9780    5.1882   49.6273 H       1  <0>         0.0236
     41 H5        -18.5172    5.1675   48.7014 H       1  <0>         0.0236
     42 H6        -16.9655    4.8019   47.8731 H       1  <0>         0.0236
     43 H7        -11.8450   10.3212   44.4974 H       1  <0>         0.0618
     44 H8        -10.4405   10.1437   46.5266 H       1  <0>         0.0618
     45 H9        -14.2634   10.7810   44.7097 H       1  <0>         0.0618
     46 H10       -11.4624   10.4284   48.7574 H       1  <0>         0.0621
     47 H11       -15.2846   11.0539   46.9453 H       1  <0>         0.0621
     48 H12       -21.4356    9.9358   49.9441 H       1  <0>         0.0625
     49 H13       -19.1927    8.9355   53.4606 H       1  <0>         0.0625
     50 H14       -23.3131   10.7102   51.3566 H       1  <0>         0.0646
     51 H15       -21.0689    9.7216   54.8717 H       1  <0>         0.0646
     52 H16       -19.3712    5.4592   50.7238 H       1  <0>         0.0305
     53 H17       -20.5379    6.5643   51.5845 H       1  <0>         0.0305
     54 H18       -20.0265    6.5037   48.5702 H       1  <0>         0.0469
     55 H19       -21.1252    7.6093   49.4388 H       1  <0>         0.0469
     56 H20       -13.3601   10.4089   50.1105 H       1  <0>         0.0512
     57 H21       -14.0715   11.9875   49.6229 H       1  <0>         0.0512
     58 H22       -21.8948    3.0173   51.3828 H       1  <0>         0.0315
     59 H23       -20.1410    3.4708   51.4303 H       1  <0>         0.0315
     60 H24       -22.3233    2.6862   54.0713 H       1  <0>         0.0350
     61 H25       -20.6753    2.2777   53.4719 H       1  <0>         0.0350
     62 H26       -16.1784    7.0167   48.2781 H       1  <0>         0.0357
     63 H27       -22.3872    5.4479   50.7018 H       1  <0>         0.0594
     64 H28       -20.5068    4.9626   53.2713 H       1  <0>         0.0598
     65 H29       -16.1053   10.9441   49.2312 H       1  <0>         0.1494
     66 H30       -22.1661    3.6788   49.2302 H       1  <0>         0.2098
     67 H31       -22.7301    5.0734   54.1045 H       1  <0>         0.2098
@<TRIPOS>BOND
     1     1    23    1
     2     2    23    1
     3     3     4   ar
     4     3     5   ar
     5     4     6   ar
     6     5     7   ar
     7     6    17   ar
     8     7    17   ar
     9     8    10   ar
    10     8    18   ar
    11     9    11   ar
    12     9    18   ar
    13    10    19   ar
    14    11    19   ar
    15    12    13    1
    16    12    24    1
    17    13    30    1
    18    14    17    1
    19    14    29    1
    20    15    24    1
    21    15    25    1
    22    16    25    1
    23    16    26    1
    24    18    22    1
    25    19    36    1
    26    20    21    2
    27    20    23    1
    28    20    30    1
    29    21    27    1
    30    21    28    1
    31    22    28    2
    32    22    30    1
    33    24    31    1
    34    25    32    1
    35    26    33    1
    36    26    34    2
    37    27    29   am
    38    27    35    2
    39     1    37    1
    40     1    38    1
    41     1    39    1
    42     2    40    1
    43     2    41    1
    44     2    42    1
    45     3    43    1
    46     4    44    1
    47     5    45    1
    48     6    46    1
    49     7    47    1
    50     8    48    1
    51     9    49    1
    52    10    50    1
    53    11    51    1
    54    12    52    1
    55    12    53    1
    56    13    54    1
    57    13    55    1
    58    14    56    1
    59    14    57    1
    60    15    58    1
    61    15    59    1
    62    16    60    1
    63    16    61    1
    64    23    62    1
    65    24    63    1
    66    25    64    1
    67    29    65    1
    68    31    66    1
    69    32    67    1
@<TRIPOS>SUBSTRUCTURE
     1 <0>         1 TEMP              0 ****  ****    0 ROOT

