
##########                                Name:          4HI_1_3CCW
##########                    Molecular_Weight:             496.559
##########                DOCK_Rotatable_Bonds:                  15
##########                       Formal_Charge:             -0.9998
##########                     HBond_Acceptors:                   9
##########                        HBond_Donors:                   3
##########                         Heavy_Atoms:                  36
##########                            HA_RMSDs:               9.993
##########                            HA_RMSDh:               8.851
##########                            HA_RMSDm:               7.430
##########                          Grid_Score:           -3.209370
##########                     Grid_vdw_energy:          -49.544277
##########                      Grid_es_energy:           46.334908
##########           Internal_energy_repulsive:           20.357616

@<TRIPOS>MOLECULE
4HI_1_3CCW
 67 69 1 0 0
SMALL
USER_CHARGES


@<TRIPOS>ATOM
      1 C1        -15.8691   11.1632   46.5245 C.3     1  <0>        -0.0574
      2 C2        -16.3109    9.0963   47.9423 C.3     1  <0>        -0.0574
      3 C3        -13.3599   10.5362   39.8804 C.ar    1  <0>        -0.0617
      4 C4        -12.8767    9.2387   39.7459 C.ar    1  <0>        -0.0615
      5 C5        -13.3309   11.1612   41.1236 C.ar    1  <0>        -0.0615
      6 C6        -12.3672    8.5727   40.8572 C.ar    1  <0>        -0.0571
      7 C7        -12.8237   10.4913   42.2345 C.ar    1  <0>        -0.0571
      8 C8        -10.9144   12.2640   49.6441 C.ar    1  <0>        -0.0486
      9 C9        -10.5110    9.9779   50.3275 C.ar    1  <0>        -0.0486
     10 C10        -9.9918   12.7124   50.5859 C.ar    1  <0>        -0.0258
     11 C11        -9.5858   10.4302   51.2668 C.ar    1  <0>        -0.0258
     12 C12       -14.3434   10.2057   50.7644 C.3     1  <0>        -0.0106
     13 C13       -14.3092   11.1792   49.5796 C.3     1  <0>         0.0208
     14 C14       -11.7758    8.4240   43.2711 C.3     1  <0>         0.0372
     15 C15       -15.1947    9.4616   52.9877 C.3     1  <0>        -0.0003
     16 C16       -14.6761    9.2632   55.4165 C.3     1  <0>         0.0130
     17 C17       -12.3452    9.1892   42.0975 C.ar    1  <0>        -0.0303
     18 C18       -11.1872   10.8998   49.5315 C.ar    1  <0>         0.0154
     19 C19        -9.3238   11.7961   51.3957 C.ar    1  <0>         0.1234
     20 C20       -13.9777    9.9004   47.4263 C.2     1  <0>         0.0452
     21 C21       -12.8553    9.4294   46.7509 C.2     1  <0>         0.1449
     22 C22       -12.1613   10.4076   48.5319 C.2     1  <0>         0.1334
     23 C23       -15.3799    9.7770   46.9439 C.3     1  <0>        -0.0060
     24 C24       -15.4380   10.4161   51.8219 C.3     1  <0>         0.0590
     25 C25       -14.4390   10.0889   54.1568 C.3     1  <0>         0.0626
     26 C26       -13.7280    9.6849   56.5187 C.2     1  <0>         0.0442
     27 C27       -12.9067    8.6846   45.4716 C.2     1  <0>         0.2642
     28 N1        -11.7613    9.7411   47.4427 N.2     1  <0>        -0.2249
     29 N2        -12.0887    9.1073   44.5139 N.am    1  <0>        -0.3059
     30 N3        -13.5113   10.5271   48.5301 N.pl3   1  <0>        -0.2858
     31 O1        -16.7415   10.1244   51.3323 O.3     1  <0>        -0.3916
     32 O2        -14.9149   11.3958   54.3809 O.3     1  <0>        -0.3913
     33 O3        -14.1874   10.3432   57.4881 O.co2   1  <0>        -0.5497
     34 O4        -12.5198    9.3610   56.4044 O.co2   1  <0>        -0.5497
     35 O5        -13.4785    7.5992   45.4119 O.2     1  <0>        -0.2685
     36 F1         -8.4321   12.2307   52.3080 F       1  <0>        -0.2055
     37 H1        -15.1596   11.6014   45.8072 H       1  <0>         0.0236
     38 H2        -16.8592   11.0754   46.0535 H       1  <0>         0.0236
     39 H3        -15.9407   11.8103   47.4111 H       1  <0>         0.0236
     40 H4        -15.9077    8.1071   48.2049 H       1  <0>         0.0236
     41 H5        -16.3890    9.7130   48.8498 H       1  <0>         0.0236
     42 H6        -17.3077    8.9782   47.4922 H       1  <0>         0.0236
     43 H7        -13.7569   11.0574   39.0218 H       1  <0>         0.0618
     44 H8        -12.8966    8.7499   38.7830 H       1  <0>         0.0618
     45 H9        -13.7032   12.1698   41.2273 H       1  <0>         0.0618
     46 H10       -11.9861    7.5677   40.7515 H       1  <0>         0.0621
     47 H11       -12.8013   10.9787   43.1980 H       1  <0>         0.0621
     48 H12       -11.4182   12.9710   49.0016 H       1  <0>         0.0625
     49 H13       -10.7021    8.9207   50.2177 H       1  <0>         0.0625
     50 H14        -9.7943   13.7692   50.6886 H       1  <0>         0.0646
     51 H15        -9.0693    9.7216   51.8974 H       1  <0>         0.0646
     52 H16       -14.4915    9.1989   50.3468 H       1  <0>         0.0305
     53 H17       -13.3770   10.2975   51.2818 H       1  <0>         0.0305
     54 H18       -15.3281   11.3832   49.2186 H       1  <0>         0.0469
     55 H19       -13.8489   12.1329   49.8773 H       1  <0>         0.0469
     56 H20       -12.2130    7.4149   43.2924 H       1  <0>         0.0512
     57 H21       -10.6835    8.3527   43.1618 H       1  <0>         0.0512
     58 H22       -16.1730    9.1220   53.3586 H       1  <0>         0.0315
     59 H23       -14.6007    8.6143   52.6146 H       1  <0>         0.0315
     60 H24       -15.7115    9.4144   55.7557 H       1  <0>         0.0350
     61 H25       -14.5096    8.2005   55.1862 H       1  <0>         0.0350
     62 H26       -15.3948    9.1049   46.0732 H       1  <0>         0.0357
     63 H27       -15.3894   11.4749   52.1160 H       1  <0>         0.0594
     64 H28       -13.3655   10.1158   53.9183 H       1  <0>         0.0598
     65 H29       -11.6414    9.9889   44.6646 H       1  <0>         0.1494
     66 H30       -17.3251    9.9584   52.0633 H       1  <0>         0.2098
     67 H31       -14.8323   11.6096   55.3028 H       1  <0>         0.2098
@<TRIPOS>BOND
     1     1    23    1
     2     2    23    1
     3     3     4   ar
     4     3     5   ar
     5     4     6   ar
     6     5     7   ar
     7     6    17   ar
     8     7    17   ar
     9     8    10   ar
    10     8    18   ar
    11     9    11   ar
    12     9    18   ar
    13    10    19   ar
    14    11    19   ar
    15    12    13    1
    16    12    24    1
    17    13    30    1
    18    14    17    1
    19    14    29    1
    20    15    24    1
    21    15    25    1
    22    16    25    1
    23    16    26    1
    24    18    22    1
    25    19    36    1
    26    20    21    2
    27    20    23    1
    28    20    30    1
    29    21    27    1
    30    21    28    1
    31    22    28    2
    32    22    30    1
    33    24    31    1
    34    25    32    1
    35    26    33    1
    36    26    34    2
    37    27    29   am
    38    27    35    2
    39     1    37    1
    40     1    38    1
    41     1    39    1
    42     2    40    1
    43     2    41    1
    44     2    42    1
    45     3    43    1
    46     4    44    1
    47     5    45    1
    48     6    46    1
    49     7    47    1
    50     8    48    1
    51     9    49    1
    52    10    50    1
    53    11    51    1
    54    12    52    1
    55    12    53    1
    56    13    54    1
    57    13    55    1
    58    14    56    1
    59    14    57    1
    60    15    58    1
    61    15    59    1
    62    16    60    1
    63    16    61    1
    64    23    62    1
    65    24    63    1
    66    25    64    1
    67    29    65    1
    68    31    66    1
    69    32    67    1
@<TRIPOS>SUBSTRUCTURE
     1 <0>         1 TEMP              0 ****  ****    0 ROOT

