
##########                                Name:          4HI_1_3CCW
##########                    Molecular_Weight:             496.559
##########                DOCK_Rotatable_Bonds:                  15
##########                       Formal_Charge:             -0.9998
##########                     HBond_Acceptors:                   9
##########                        HBond_Donors:                   3
##########                         Heavy_Atoms:                  36
##########                            HA_RMSDs:              11.697
##########                            HA_RMSDh:              10.452
##########                            HA_RMSDm:               8.369
##########                          Grid_Score:           -0.311855
##########                     Grid_vdw_energy:          -39.624805
##########                      Grid_es_energy:           39.312950
##########           Internal_energy_repulsive:           18.884069

@<TRIPOS>MOLECULE
4HI_1_3CCW
 67 69 1 0 0
SMALL
USER_CHARGES


@<TRIPOS>ATOM
      1 C1        -20.0105    5.1751   49.0206 C.3     1  <0>        -0.0574
      2 C2        -19.0826    4.8280   51.3648 C.3     1  <0>        -0.0574
      3 C3        -14.4871    4.7760   45.8881 C.ar    1  <0>        -0.0617
      4 C4        -13.6331    5.7626   46.3702 C.ar    1  <0>        -0.0615
      5 C5        -15.8581    5.0104   45.8372 C.ar    1  <0>        -0.0615
      6 C6        -14.1560    6.9792   46.7999 C.ar    1  <0>        -0.0571
      7 C7        -16.3790    6.2273   46.2710 C.ar    1  <0>        -0.0571
      8 C8        -22.4130   10.4072   50.6877 C.ar    1  <0>        -0.0486
      9 C9        -20.9889   10.6758   52.6257 C.ar    1  <0>        -0.0486
     10 C10       -23.2729   11.3860   51.1792 C.ar    1  <0>        -0.0258
     11 C11       -21.8502   11.6575   53.1128 C.ar    1  <0>        -0.0258
     12 C12       -21.5038    7.0107   53.0082 C.3     1  <0>        -0.0106
     13 C13       -21.6465    6.9263   51.4833 C.3     1  <0>         0.0208
     14 C14       -16.0368    8.5524   47.2317 C.3     1  <0>         0.0372
     15 C15       -22.0694    6.2947   55.3296 C.3     1  <0>        -0.0003
     16 C16       -21.8308    7.7886   57.3093 C.3     1  <0>         0.0130
     17 C17       -15.5210    7.2118   46.7586 C.ar    1  <0>        -0.0303
     18 C18       -21.2844   10.0395   51.4221 C.ar    1  <0>         0.0154
     19 C19       -22.9908   12.0149   52.3902 C.ar    1  <0>         0.1234
     20 C20       -19.3896    7.1223   50.3653 C.2     1  <0>         0.0452
     21 C21       -18.5900    8.2002   49.9962 C.2     1  <0>         0.1449
     22 C22       -20.3585    9.0046   50.9105 C.2     1  <0>         0.1334
     23 C23       -19.0687    5.6923   50.1080 C.3     1  <0>        -0.0060
     24 C24       -22.4230    6.1174   53.8556 C.3     1  <0>         0.0590
     25 C25       -22.1825    7.7341   55.8267 C.3     1  <0>         0.0626
     26 C26       -21.7271    9.2229   57.7820 C.2     1  <0>         0.0442
     27 C27       -17.2698    8.0688   49.3376 C.2     1  <0>         0.2642
     28 N1        -19.1929    9.3356   50.3427 N.2     1  <0>        -0.2249
     29 N2        -17.2266    8.3727   48.0450 N.am    1  <0>        -0.3059
     30 N3        -20.5017    7.6569   50.9188 N.pl3   1  <0>        -0.2858
     31 O1        -22.2628    4.7329   53.5703 O.3     1  <0>        -0.3916
     32 O2        -23.5057    8.1887   55.6624 O.3     1  <0>        -0.3913
     33 O3        -22.5672    9.6422   58.6203 O.co2   1  <0>        -0.5497
     34 O4        -20.8058    9.9296   57.3033 O.co2   1  <0>        -0.5497
     35 O5        -16.2526    7.9409   50.0141 O.2     1  <0>        -0.2685
     36 F1        -23.8241   12.9611   52.8661 F       1  <0>        -0.2055
     37 H1        -19.9568    5.8366   48.1433 H       1  <0>         0.0236
     38 H2        -19.7115    4.1570   48.7307 H       1  <0>         0.0236
     39 H3        -21.0409    5.1594   49.4052 H       1  <0>         0.0236
     40 H4        -18.3886    5.2487   52.1074 H       1  <0>         0.0236
     41 H5        -20.0994    4.8072   51.7841 H       1  <0>         0.0236
     42 H6        -18.7701    3.8047   51.1095 H       1  <0>         0.0236
     43 H7        -14.0871    3.8301   45.5539 H       1  <0>         0.0618
     44 H8        -12.5685    5.5855   46.4109 H       1  <0>         0.0618
     45 H9        -16.5209    4.2456   45.4599 H       1  <0>         0.0618
     46 H10       -13.4924    7.7476   47.1682 H       1  <0>         0.0621
     47 H11       -17.4430    6.4072   46.2297 H       1  <0>         0.0621
     48 H12       -22.6192    9.9331   49.7395 H       1  <0>         0.0625
     49 H13       -20.0992   10.4104   53.1772 H       1  <0>         0.0625
     50 H14       -24.1576   11.6576   50.6223 H       1  <0>         0.0646
     51 H15       -21.6347   12.1437   54.0528 H       1  <0>         0.0646
     52 H16       -20.4693    6.7245   53.2489 H       1  <0>         0.0305
     53 H17       -21.7186    8.0514   53.2924 H       1  <0>         0.0305
     54 H18       -21.6355    5.8773   51.1525 H       1  <0>         0.0469
     55 H19       -22.5932    7.3828   51.1588 H       1  <0>         0.0469
     56 H20       -15.2596    9.0488   47.8312 H       1  <0>         0.0512
     57 H21       -16.2851    9.1739   46.3586 H       1  <0>         0.0512
     58 H22       -22.7599    5.6758   55.9214 H       1  <0>         0.0315
     59 H23       -21.0290    5.9672   55.4712 H       1  <0>         0.0315
     60 H24       -22.6167    7.2767   57.8841 H       1  <0>         0.0350
     61 H25       -20.8648    7.2871   57.4682 H       1  <0>         0.0350
     62 H26       -18.0292    5.6228   49.7550 H       1  <0>         0.0357
     63 H27       -23.4546    6.4191   53.6217 H       1  <0>         0.0594
     64 H28       -21.4930    8.3688   55.2506 H       1  <0>         0.0598
     65 H29       -18.1059    8.4899   47.5834 H       1  <0>         0.1494
     66 H30       -22.7187    4.2190   54.2264 H       1  <0>         0.2098
     67 H31       -23.5555    9.1093   55.8917 H       1  <0>         0.2098
@<TRIPOS>BOND
     1     1    23    1
     2     2    23    1
     3     3     4   ar
     4     3     5   ar
     5     4     6   ar
     6     5     7   ar
     7     6    17   ar
     8     7    17   ar
     9     8    10   ar
    10     8    18   ar
    11     9    11   ar
    12     9    18   ar
    13    10    19   ar
    14    11    19   ar
    15    12    13    1
    16    12    24    1
    17    13    30    1
    18    14    17    1
    19    14    29    1
    20    15    24    1
    21    15    25    1
    22    16    25    1
    23    16    26    1
    24    18    22    1
    25    19    36    1
    26    20    21    2
    27    20    23    1
    28    20    30    1
    29    21    27    1
    30    21    28    1
    31    22    28    2
    32    22    30    1
    33    24    31    1
    34    25    32    1
    35    26    33    1
    36    26    34    2
    37    27    29   am
    38    27    35    2
    39     1    37    1
    40     1    38    1
    41     1    39    1
    42     2    40    1
    43     2    41    1
    44     2    42    1
    45     3    43    1
    46     4    44    1
    47     5    45    1
    48     6    46    1
    49     7    47    1
    50     8    48    1
    51     9    49    1
    52    10    50    1
    53    11    51    1
    54    12    52    1
    55    12    53    1
    56    13    54    1
    57    13    55    1
    58    14    56    1
    59    14    57    1
    60    15    58    1
    61    15    59    1
    62    16    60    1
    63    16    61    1
    64    23    62    1
    65    24    63    1
    66    25    64    1
    67    29    65    1
    68    31    66    1
    69    32    67    1
@<TRIPOS>SUBSTRUCTURE
     1 <0>         1 TEMP              0 ****  ****    0 ROOT

