
##########                                Name:          4HI_1_3CCW
##########                    Molecular_Weight:             496.559
##########                DOCK_Rotatable_Bonds:                  15
##########                       Formal_Charge:             -0.9998
##########                     HBond_Acceptors:                   9
##########                        HBond_Donors:                   3
##########                         Heavy_Atoms:                  36
##########                            HA_RMSDs:              18.049
##########                            HA_RMSDh:              17.833
##########                            HA_RMSDm:              16.098
##########                          Grid_Score:            0.585068
##########                     Grid_vdw_energy:          -41.329041
##########                      Grid_es_energy:           41.914108
##########           Internal_energy_repulsive:           23.768661

@<TRIPOS>MOLECULE
4HI_1_3CCW
 67 69 1 0 0
SMALL
USER_CHARGES


@<TRIPOS>ATOM
      1 C1        -28.5590   -3.5411   50.0534 C.3     1  <0>        -0.0574
      2 C2        -29.1459   -3.6038   52.5290 C.3     1  <0>        -0.0574
      3 C3        -26.4944   -9.8663   48.6294 C.ar    1  <0>        -0.0617
      4 C4        -25.5104  -10.4465   49.4234 C.ar    1  <0>        -0.0615
      5 C5        -26.6753   -8.4865   48.6474 C.ar    1  <0>        -0.0615
      6 C6        -24.7125   -9.6421   50.2324 C.ar    1  <0>        -0.0571
      7 C7        -25.8778   -7.6844   49.4603 C.ar    1  <0>        -0.0571
      8 C8        -23.9731    0.0657   51.1561 C.ar    1  <0>        -0.0486
      9 C9        -23.6210   -0.6119   53.4524 C.ar    1  <0>        -0.0486
     10 C10       -23.1550    1.1751   51.3541 C.ar    1  <0>        -0.0258
     11 C11       -22.8000    0.4977   53.6458 C.ar    1  <0>        -0.0258
     12 C12       -27.3214   -0.2974   53.1978 C.3     1  <0>        -0.0106
     13 C13       -27.3256   -0.8911   51.7835 C.3     1  <0>         0.0208
     14 C14       -23.9989   -7.4406   51.1505 C.3     1  <0>         0.0372
     15 C15       -28.4519    0.8922   55.0761 C.3     1  <0>        -0.0003
     16 C16       -27.5339    2.1295   57.0342 C.3     1  <0>         0.0130
     17 C17       -24.8962   -8.2693   50.2589 C.ar    1  <0>        -0.0303
     18 C18       -24.2210   -0.8136   52.2114 C.ar    1  <0>         0.0154
     19 C19       -22.5647    1.3905   52.5977 C.ar    1  <0>         0.1234
     20 C20       -26.7727   -3.3552   51.7147 C.2     1  <0>         0.0452
     21 C21       -25.5881   -4.0780   51.8234 C.2     1  <0>         0.1449
     22 C22       -25.0841   -1.9997   52.0151 C.2     1  <0>         0.1334
     23 C23       -28.1142   -3.9460   51.4588 C.3     1  <0>        -0.0060
     24 C24       -28.4677    0.6563   53.5684 C.3     1  <0>         0.0590
     25 C25       -27.3711    1.8653   55.5413 C.3     1  <0>         0.0626
     26 C26       -26.2309    2.6083   57.6378 C.2     1  <0>         0.0442
     27 C27       -25.5062   -5.5553   51.7526 C.2     1  <0>         0.2642
     28 N1        -24.5739   -3.2367   52.0130 N.2     1  <0>        -0.2249
     29 N2        -24.4332   -6.0547   51.1491 N.am    1  <0>        -0.3059
     30 N3        -26.4241   -2.0527   51.8189 N.pl3   1  <0>        -0.2858
     31 O1        -29.7503    0.1230   53.2610 O.3     1  <0>        -0.3916
     32 O2        -27.5058    3.0866   54.8522 O.3     1  <0>        -0.3913
     33 O3        -26.1063    3.8314   57.9072 O.co2   1  <0>        -0.5497
     34 O4        -25.3300    1.7550   57.8326 O.co2   1  <0>        -0.5497
     35 O5        -26.2537   -6.2485   52.4378 O.2     1  <0>        -0.2685
     36 F1        -21.7742    2.4651   52.7891 F       1  <0>        -0.2055
     37 H1        -27.7773   -3.8122   49.3286 H       1  <0>         0.0236
     38 H2        -29.4921   -4.0651   49.7992 H       1  <0>         0.0236
     39 H3        -28.7278   -2.4547   50.0212 H       1  <0>         0.0236
     40 H4        -28.7708   -3.9177   53.5143 H       1  <0>         0.0236
     41 H5        -29.3233   -2.5182   52.5332 H       1  <0>         0.0236
     42 H6        -30.0878   -4.1286   52.3112 H       1  <0>         0.0236
     43 H7        -27.1167  -10.4855   48.0003 H       1  <0>         0.0618
     44 H8        -25.3661  -11.5167   49.4123 H       1  <0>         0.0618
     45 H9        -27.4371   -8.0358   48.0285 H       1  <0>         0.0618
     46 H10       -23.9443  -10.0918   50.8441 H       1  <0>         0.0621
     47 H11       -26.0193   -6.6138   49.4719 H       1  <0>         0.0621
     48 H12       -24.4153   -0.1140   50.1873 H       1  <0>         0.0625
     49 H13       -23.7907   -1.3102   54.2586 H       1  <0>         0.0625
     50 H14       -22.9783    1.8678   50.5445 H       1  <0>         0.0646
     51 H15       -22.3441    0.6679   54.6100 H       1  <0>         0.0646
     52 H16       -27.3694   -1.1429   53.8997 H       1  <0>         0.0305
     53 H17       -26.3856    0.2711   53.3032 H       1  <0>         0.0305
     54 H18       -28.3419   -1.2003   51.4981 H       1  <0>         0.0469
     55 H19       -26.9703   -0.1495   51.0529 H       1  <0>         0.0469
     56 H20       -24.0447   -7.8337   52.1768 H       1  <0>         0.0512
     57 H21       -22.9655   -7.4969   50.7776 H       1  <0>         0.0512
     58 H22       -29.4291    1.3063   55.3654 H       1  <0>         0.0315
     59 H23       -28.2737   -0.0747   55.5693 H       1  <0>         0.0315
     60 H24       -28.3031    2.9021   57.1806 H       1  <0>         0.0350
     61 H25       -27.8400    1.1980   57.5327 H       1  <0>         0.0350
     62 H26       -28.0330   -5.0416   51.5154 H       1  <0>         0.0357
     63 H27       -28.3088    1.5768   52.9876 H       1  <0>         0.0594
     64 H28       -26.3822    1.4275   55.3401 H       1  <0>         0.0598
     65 H29       -23.8647   -5.4083   50.6402 H       1  <0>         0.1494
     66 H30       -30.4233    0.6840   53.6281 H       1  <0>         0.2098
     67 H31       -26.7177    3.6044   54.9677 H       1  <0>         0.2098
@<TRIPOS>BOND
     1     1    23    1
     2     2    23    1
     3     3     4   ar
     4     3     5   ar
     5     4     6   ar
     6     5     7   ar
     7     6    17   ar
     8     7    17   ar
     9     8    10   ar
    10     8    18   ar
    11     9    11   ar
    12     9    18   ar
    13    10    19   ar
    14    11    19   ar
    15    12    13    1
    16    12    24    1
    17    13    30    1
    18    14    17    1
    19    14    29    1
    20    15    24    1
    21    15    25    1
    22    16    25    1
    23    16    26    1
    24    18    22    1
    25    19    36    1
    26    20    21    2
    27    20    23    1
    28    20    30    1
    29    21    27    1
    30    21    28    1
    31    22    28    2
    32    22    30    1
    33    24    31    1
    34    25    32    1
    35    26    33    1
    36    26    34    2
    37    27    29   am
    38    27    35    2
    39     1    37    1
    40     1    38    1
    41     1    39    1
    42     2    40    1
    43     2    41    1
    44     2    42    1
    45     3    43    1
    46     4    44    1
    47     5    45    1
    48     6    46    1
    49     7    47    1
    50     8    48    1
    51     9    49    1
    52    10    50    1
    53    11    51    1
    54    12    52    1
    55    12    53    1
    56    13    54    1
    57    13    55    1
    58    14    56    1
    59    14    57    1
    60    15    58    1
    61    15    59    1
    62    16    60    1
    63    16    61    1
    64    23    62    1
    65    24    63    1
    66    25    64    1
    67    29    65    1
    68    31    66    1
    69    32    67    1
@<TRIPOS>SUBSTRUCTURE
     1 <0>         1 TEMP              0 ****  ****    0 ROOT

