
##########                                Name:          4HI_1_3CCW
##########                    Molecular_Weight:             496.559
##########                DOCK_Rotatable_Bonds:                  15
##########                       Formal_Charge:             -0.9998
##########                     HBond_Acceptors:                   9
##########                        HBond_Donors:                   3
##########                         Heavy_Atoms:                  36
##########                            HA_RMSDs:              10.867
##########                            HA_RMSDh:               8.538
##########                            HA_RMSDm:               6.917
##########                          Grid_Score:           19.968632
##########                     Grid_vdw_energy:          -36.560318
##########                      Grid_es_energy:           56.528950
##########           Internal_energy_repulsive:           21.824062

@<TRIPOS>MOLECULE
4HI_1_3CCW
 67 69 1 0 0
SMALL
USER_CHARGES


@<TRIPOS>ATOM
      1 C1        -13.6417    6.7274   51.6811 C.3     1  <0>        -0.0574
      2 C2        -15.0819    8.8048   51.9761 C.3     1  <0>        -0.0574
      3 C3         -9.8868    7.4563   46.2111 C.ar    1  <0>        -0.0617
      4 C4        -10.6299    8.2653   45.3576 C.ar    1  <0>        -0.0615
      5 C5        -10.5191    6.4552   46.9425 C.ar    1  <0>        -0.0615
      6 C6        -12.0031    8.0684   45.2409 C.ar    1  <0>        -0.0571
      7 C7        -11.8938    6.2626   46.8264 C.ar    1  <0>        -0.0571
      8 C8        -18.5886    3.6026   51.1480 C.ar    1  <0>        -0.0486
      9 C9        -19.8359    5.0336   49.6472 C.ar    1  <0>        -0.0486
     10 C10       -19.7070    2.7883   51.3072 C.ar    1  <0>        -0.0258
     11 C11       -20.9523    4.2144   49.8063 C.ar    1  <0>        -0.0258
     12 C12       -18.0151    7.0161   52.9205 C.3     1  <0>        -0.0106
     13 C13       -16.8778    6.0565   52.5482 C.3     1  <0>         0.0208
     14 C14       -14.1291    6.9024   45.8064 C.3     1  <0>         0.0372
     15 C15       -18.9386    8.7262   54.4838 C.3     1  <0>        -0.0003
     16 C16       -20.9173   10.0571   53.7617 C.3     1  <0>         0.0130
     17 C17       -12.6365    7.0784   45.9743 C.ar    1  <0>        -0.0303
     18 C18       -18.6618    4.7349   50.3350 C.ar    1  <0>         0.0154
     19 C19       -20.8888    3.0910   50.6339 C.ar    1  <0>         0.1234
     20 C20       -15.7505    6.9090   50.4543 C.2     1  <0>         0.0452
     21 C21       -15.9850    6.7276   49.0943 C.2     1  <0>         0.1449
     22 C22       -17.4803    5.6070   50.1520 C.2     1  <0>         0.1334
     23 C23       -14.6277    7.6975   51.0304 C.3     1  <0>        -0.0060
     24 C24       -18.1374    7.4303   54.3950 C.3     1  <0>         0.0590
     25 C25       -20.3001    8.6632   53.7953 C.3     1  <0>         0.0626
     26 C26       -22.3405    9.9995   53.2492 C.2     1  <0>         0.0442
     27 C27       -15.1724    7.3454   48.0209 C.2     1  <0>         0.2642
     28 N1        -17.0452    5.9390   48.9309 N.2     1  <0>        -0.2249
     29 N2        -14.7345    6.5256   47.0716 N.am    1  <0>        -0.3059
     30 N3        -16.6916    6.1787   51.0943 N.pl3   1  <0>        -0.2858
     31 O1        -16.8775    7.6975   54.9994 O.3     1  <0>        -0.3916
     32 O2        -21.1569    7.8105   54.5188 O.3     1  <0>        -0.3913
     33 O3        -23.2790    9.9384   54.0856 O.co2   1  <0>        -0.5497
     34 O4        -22.5131   10.0071   52.0051 O.co2   1  <0>        -0.5497
     35 O5        -15.1400    8.5669   47.8968 O.2     1  <0>        -0.2685
     36 F1        -21.9713    2.3034   50.7895 F       1  <0>        -0.2055
     37 H1        -13.3520    5.9550   50.9534 H       1  <0>         0.0236
     38 H2        -12.7469    7.2779   52.0069 H       1  <0>         0.0236
     39 H3        -14.1165    6.2511   52.5515 H       1  <0>         0.0236
     40 H4        -15.7869    9.4680   51.4533 H       1  <0>         0.0236
     41 H5        -15.5779    8.3591   52.8509 H       1  <0>         0.0236
     42 H6        -14.2082    9.3860   52.3063 H       1  <0>         0.0236
     43 H7         -8.8212    7.6049   46.3060 H       1  <0>         0.0618
     44 H8        -10.1434    9.0430   44.7876 H       1  <0>         0.0618
     45 H9         -9.9416    5.8250   47.6027 H       1  <0>         0.0618
     46 H10       -12.5791    8.6923   44.5735 H       1  <0>         0.0621
     47 H11       -12.3821    5.4845   47.3942 H       1  <0>         0.0621
     48 H12       -17.6657    3.3583   51.6529 H       1  <0>         0.0625
     49 H13       -19.8807    5.8936   48.9955 H       1  <0>         0.0625
     50 H14       -19.6584    1.9231   51.9517 H       1  <0>         0.0646
     51 H15       -21.8700    4.4492   49.2877 H       1  <0>         0.0646
     52 H16       -17.8582    7.9380   52.3413 H       1  <0>         0.0305
     53 H17       -18.9569    6.5163   52.6495 H       1  <0>         0.0305
     54 H18       -15.9540    6.3289   53.0795 H       1  <0>         0.0469
     55 H19       -17.1415    5.0231   52.8176 H       1  <0>         0.0469
     56 H20       -14.5693    7.8498   45.4619 H       1  <0>         0.0512
     57 H21       -14.3197    6.1133   45.0641 H       1  <0>         0.0512
     58 H22       -19.1059    8.9500   55.5477 H       1  <0>         0.0315
     59 H23       -18.3513    9.5223   54.0028 H       1  <0>         0.0315
     60 H24       -20.9184   10.4742   54.7795 H       1  <0>         0.0350
     61 H25       -20.3211   10.6980   53.0956 H       1  <0>         0.0350
     62 H26       -14.1242    8.2397   50.2164 H       1  <0>         0.0357
     63 H27       -18.6194    6.5904   54.9168 H       1  <0>         0.0594
     64 H28       -20.1683    8.2828   52.7716 H       1  <0>         0.0598
     65 H29       -14.8319    5.5459   47.2467 H       1  <0>         0.1494
     66 H30       -17.0099    8.1682   55.8139 H       1  <0>         0.2098
     67 H31       -21.9988    7.7614   54.0814 H       1  <0>         0.2098
@<TRIPOS>BOND
     1     1    23    1
     2     2    23    1
     3     3     4   ar
     4     3     5   ar
     5     4     6   ar
     6     5     7   ar
     7     6    17   ar
     8     7    17   ar
     9     8    10   ar
    10     8    18   ar
    11     9    11   ar
    12     9    18   ar
    13    10    19   ar
    14    11    19   ar
    15    12    13    1
    16    12    24    1
    17    13    30    1
    18    14    17    1
    19    14    29    1
    20    15    24    1
    21    15    25    1
    22    16    25    1
    23    16    26    1
    24    18    22    1
    25    19    36    1
    26    20    21    2
    27    20    23    1
    28    20    30    1
    29    21    27    1
    30    21    28    1
    31    22    28    2
    32    22    30    1
    33    24    31    1
    34    25    32    1
    35    26    33    1
    36    26    34    2
    37    27    29   am
    38    27    35    2
    39     1    37    1
    40     1    38    1
    41     1    39    1
    42     2    40    1
    43     2    41    1
    44     2    42    1
    45     3    43    1
    46     4    44    1
    47     5    45    1
    48     6    46    1
    49     7    47    1
    50     8    48    1
    51     9    49    1
    52    10    50    1
    53    11    51    1
    54    12    52    1
    55    12    53    1
    56    13    54    1
    57    13    55    1
    58    14    56    1
    59    14    57    1
    60    15    58    1
    61    15    59    1
    62    16    60    1
    63    16    61    1
    64    23    62    1
    65    24    63    1
    66    25    64    1
    67    29    65    1
    68    31    66    1
    69    32    67    1
@<TRIPOS>SUBSTRUCTURE
     1 <0>         1 TEMP              0 ****  ****    0 ROOT

