
##########                                Name:          4HI_1_3CCW
##########                    Molecular_Weight:             496.559
##########                DOCK_Rotatable_Bonds:                  15
##########                       Formal_Charge:             -0.9998
##########                     HBond_Acceptors:                   9
##########                        HBond_Donors:                   3
##########                         Heavy_Atoms:                  36
##########                            HA_RMSDs:              11.947
##########                            HA_RMSDh:              10.809
##########                            HA_RMSDm:               8.595
##########                          Grid_Score:            0.665306
##########                     Grid_vdw_energy:          -38.910645
##########                      Grid_es_energy:           39.575951
##########           Internal_energy_repulsive:           18.081594

@<TRIPOS>MOLECULE
4HI_1_3CCW
 67 69 1 0 0
SMALL
USER_CHARGES


@<TRIPOS>ATOM
      1 C1        -20.1461    4.1055   49.7073 C.3     1  <0>        -0.0574
      2 C2        -19.4173    3.8491   52.1322 C.3     1  <0>        -0.0574
      3 C3        -15.1015    4.5698   45.0046 C.ar    1  <0>        -0.0617
      4 C4        -14.0032    4.7895   45.8296 C.ar    1  <0>        -0.0615
      5 C5        -16.3019    5.2266   45.2589 C.ar    1  <0>        -0.0615
      6 C6        -14.1123    5.6655   46.9061 C.ar    1  <0>        -0.0571
      7 C7        -16.4092    6.0999   46.3388 C.ar    1  <0>        -0.0571
      8 C8        -22.0446    9.6378   50.7939 C.ar    1  <0>        -0.0486
      9 C9        -20.6153   10.0448   52.7037 C.ar    1  <0>        -0.0486
     10 C10       -22.8111   10.7522   51.1252 C.ar    1  <0>        -0.0258
     11 C11       -21.3828   11.1615   53.0303 C.ar    1  <0>        -0.0258
     12 C12       -21.7345    6.4718   53.3520 C.3     1  <0>        -0.0106
     13 C13       -21.7284    6.2444   51.8351 C.3     1  <0>         0.0208
     14 C14       -15.3720    7.2595   48.3452 C.3     1  <0>         0.0372
     15 C15       -22.6618    6.0795   55.6340 C.3     1  <0>        -0.0003
     16 C16       -22.6381    7.4724   57.6997 C.3     1  <0>         0.0130
     17 C17       -15.3084    6.3138   47.1669 C.ar    1  <0>        -0.0303
     18 C18       -20.9613    9.2745   51.5956 C.ar    1  <0>         0.0154
     19 C19       -22.4791   11.5174   52.2414 C.ar    1  <0>         0.1234
     20 C20       -19.3719    6.0710   50.9413 C.2     1  <0>         0.0452
     21 C21       -18.4086    7.0092   50.5817 C.2     1  <0>         0.1449
     22 C22       -20.1344    8.0958   51.2536 C.2     1  <0>         0.1334
     23 C23       -19.2169    4.5962   50.8175 C.3     1  <0>        -0.0060
     24 C24       -22.9485    5.9560   54.1401 C.3     1  <0>         0.0590
     25 C25       -22.8772    7.4838   56.1938 C.3     1  <0>         0.0626
     26 C26       -22.0142    8.7754   58.1519 C.2     1  <0>         0.0442
     27 C27       -17.0616    6.6641   50.0715 C.2     1  <0>         0.2642
     28 N1        -18.8884    8.2343   50.7858 N.2     1  <0>        -0.2249
     29 N2        -16.7010    7.2416   48.9307 N.am    1  <0>        -0.3059
     30 N3        -20.4513    6.7810   51.3406 N.pl3   1  <0>        -0.2858
     31 O1        -23.2197    4.5807   53.8978 O.3     1  <0>        -0.3916
     32 O2        -24.2043    7.8905   55.9532 O.3     1  <0>        -0.3913
     33 O3        -22.7628    9.6659   58.6322 O.co2   1  <0>        -0.5497
     34 O4        -20.7724    8.9056   58.0158 O.co2   1  <0>        -0.5497
     35 O5        -16.2543    6.0910   50.7985 O.2     1  <0>        -0.2685
     36 F1        -23.2220   12.5950   52.5623 F       1  <0>        -0.2055
     37 H1        -19.9553    4.6794   48.7885 H       1  <0>         0.0236
     38 H2        -19.9593    3.0382   49.5182 H       1  <0>         0.0236
     39 H3        -21.1924    4.2457   50.0165 H       1  <0>         0.0236
     40 H4        -18.7239    4.2449   52.8889 H       1  <0>         0.0236
     41 H5        -20.4529    3.9855   52.4771 H       1  <0>         0.0236
     42 H6        -19.2199    2.7779   51.9788 H       1  <0>         0.0236
     43 H7        -15.0227    3.8909   44.1683 H       1  <0>         0.0618
     44 H8        -13.0695    4.2825   45.6357 H       1  <0>         0.0618
     45 H9        -17.1536    5.0584   44.6165 H       1  <0>         0.0618
     46 H10       -13.2578    5.8410   47.5429 H       1  <0>         0.0621
     47 H11       -17.3414    6.6091   46.5337 H       1  <0>         0.0621
     48 H12       -22.2881    9.0553   49.9176 H       1  <0>         0.0625
     49 H13       -19.7587    9.7786   53.3052 H       1  <0>         0.0625
     50 H14       -23.6619   11.0231   50.5177 H       1  <0>         0.0646
     51 H15       -21.1287   11.7540   53.8968 H       1  <0>         0.0646
     52 H16       -20.8495    5.9584   53.7558 H       1  <0>         0.0305
     53 H17       -21.6873    7.5590   53.5126 H       1  <0>         0.0305
     54 H18       -21.8106    5.1718   51.6056 H       1  <0>         0.0469
     55 H19       -22.5742    6.7662   51.3636 H       1  <0>         0.0469
     56 H20       -14.6384    6.9454   49.1021 H       1  <0>         0.0512
     57 H21       -15.1398    8.2793   48.0044 H       1  <0>         0.0512
     58 H22       -23.3369    5.3941   56.1672 H       1  <0>         0.0315
     59 H23       -21.6101    5.8045   55.8019 H       1  <0>         0.0315
     60 H24       -23.6003    7.3366   58.2152 H       1  <0>         0.0350
     61 H25       -21.9598    6.6433   57.9496 H       1  <0>         0.0350
     62 H26       -18.1742    4.3733   50.5470 H       1  <0>         0.0357
     63 H27       -23.8102    6.5583   53.8165 H       1  <0>         0.0594
     64 H28       -22.1773    8.1773   55.7046 H       1  <0>         0.0598
     65 H29       -17.4206    7.7138   48.4214 H       1  <0>         0.1494
     66 H30       -23.9934    4.3197   54.3833 H       1  <0>         0.2098
     67 H31       -24.3460    8.7503   56.3316 H       1  <0>         0.2098
@<TRIPOS>BOND
     1     1    23    1
     2     2    23    1
     3     3     4   ar
     4     3     5   ar
     5     4     6   ar
     6     5     7   ar
     7     6    17   ar
     8     7    17   ar
     9     8    10   ar
    10     8    18   ar
    11     9    11   ar
    12     9    18   ar
    13    10    19   ar
    14    11    19   ar
    15    12    13    1
    16    12    24    1
    17    13    30    1
    18    14    17    1
    19    14    29    1
    20    15    24    1
    21    15    25    1
    22    16    25    1
    23    16    26    1
    24    18    22    1
    25    19    36    1
    26    20    21    2
    27    20    23    1
    28    20    30    1
    29    21    27    1
    30    21    28    1
    31    22    28    2
    32    22    30    1
    33    24    31    1
    34    25    32    1
    35    26    33    1
    36    26    34    2
    37    27    29   am
    38    27    35    2
    39     1    37    1
    40     1    38    1
    41     1    39    1
    42     2    40    1
    43     2    41    1
    44     2    42    1
    45     3    43    1
    46     4    44    1
    47     5    45    1
    48     6    46    1
    49     7    47    1
    50     8    48    1
    51     9    49    1
    52    10    50    1
    53    11    51    1
    54    12    52    1
    55    12    53    1
    56    13    54    1
    57    13    55    1
    58    14    56    1
    59    14    57    1
    60    15    58    1
    61    15    59    1
    62    16    60    1
    63    16    61    1
    64    23    62    1
    65    24    63    1
    66    25    64    1
    67    29    65    1
    68    31    66    1
    69    32    67    1
@<TRIPOS>SUBSTRUCTURE
     1 <0>         1 TEMP              0 ****  ****    0 ROOT

