
##########                                Name:          4HI_1_3CCW
##########                    Molecular_Weight:             496.559
##########                DOCK_Rotatable_Bonds:                  15
##########                       Formal_Charge:             -0.9998
##########                     HBond_Acceptors:                   9
##########                        HBond_Donors:                   3
##########                         Heavy_Atoms:                  36
##########                            HA_RMSDs:              12.236
##########                            HA_RMSDh:              11.107
##########                            HA_RMSDm:               8.890
##########                          Grid_Score:           -0.037891
##########                     Grid_vdw_energy:          -38.027302
##########                      Grid_es_energy:           37.989410
##########           Internal_energy_repulsive:           21.172575

@<TRIPOS>MOLECULE
4HI_1_3CCW
 67 69 1 0 0
SMALL
USER_CHARGES


@<TRIPOS>ATOM
      1 C1        -20.8188    4.8213   49.7338 C.3     1  <0>        -0.0574
      2 C2        -19.9958    4.4234   52.1089 C.3     1  <0>        -0.0574
      3 C3        -15.7926    5.0172   45.2581 C.ar    1  <0>        -0.0617
      4 C4        -14.7189    5.2698   46.1059 C.ar    1  <0>        -0.0615
      5 C5        -16.9619    5.7623   45.3797 C.ar    1  <0>        -0.0615
      6 C6        -14.8214    6.2669   47.0720 C.ar    1  <0>        -0.0571
      7 C7        -17.0629    6.7570   46.3495 C.ar    1  <0>        -0.0571
      8 C8        -22.5043   10.3221   51.3290 C.ar    1  <0>        -0.0486
      9 C9        -20.8485   10.6262   53.0674 C.ar    1  <0>        -0.0486
     10 C10       -23.1978   11.4386   51.7890 C.ar    1  <0>        -0.0258
     11 C11       -21.5436   11.7452   53.5229 C.ar    1  <0>        -0.0258
     12 C12       -21.9139    6.8568   53.6950 C.3     1  <0>        -0.0106
     13 C13       -22.1630    6.8872   52.1819 C.3     1  <0>         0.0208
     14 C14       -16.0444    8.0794   48.2627 C.3     1  <0>         0.0372
     15 C15       -22.4892    6.1709   56.0232 C.3     1  <0>        -0.0003
     16 C16       -22.9426    7.4634   58.1045 C.3     1  <0>         0.0130
     17 C17       -15.9872    7.0040   47.2010 C.ar    1  <0>        -0.0303
     18 C18       -21.3428    9.9062   51.9820 C.ar    1  <0>         0.0154
     19 C19       -22.7166   12.1535   52.8839 C.ar    1  <0>         0.1234
     20 C20       -19.9257    6.6983   51.0239 C.2     1  <0>         0.0452
     21 C21       -18.9823    7.6287   50.5975 C.2     1  <0>         0.1449
     22 C22       -20.5921    8.7247   51.5019 C.2     1  <0>         0.1334
     23 C23       -19.8266    5.2271   50.8235 C.3     1  <0>        -0.0060
     24 C24       -22.8825    6.0305   54.5553 C.3     1  <0>         0.0590
     25 C25       -22.7250    7.5654   56.5987 C.3     1  <0>         0.0626
     26 C26       -22.4802    8.7267   58.7985 C.2     1  <0>         0.0442
     27 C27       -17.7102    7.2750   49.9261 C.2     1  <0>         0.2642
     28 N1        -19.4022    8.8545   50.9037 N.2     1  <0>        -0.2249
     29 N2        -17.3378    8.0627   48.9233 N.am    1  <0>        -0.3059
     30 N3        -20.9340    7.4150   51.5700 N.pl3   1  <0>        -0.2858
     31 O1        -22.8335    4.6397   54.2600 O.3     1  <0>        -0.3916
     32 O2        -23.8772    8.1290   56.0161 O.3     1  <0>        -0.3913
     33 O3        -23.3429    9.4648   59.3417 O.co2   1  <0>        -0.5497
     34 O4        -21.2500    8.9803   58.7893 O.co2   1  <0>        -0.5497
     35 O5        -16.9430    6.4675   50.4437 O.2     1  <0>        -0.2685
     36 F1        -23.3890   13.2332   53.3295 F       1  <0>        -0.2055
     37 H1        -20.6482    5.4331   48.8356 H       1  <0>         0.0236
     38 H2        -20.6769    3.7591   49.4861 H       1  <0>         0.0236
     39 H3        -21.8455    4.9797   50.0955 H       1  <0>         0.0236
     40 H4        -19.2574    4.7593   52.8519 H       1  <0>         0.0236
     41 H5        -21.0104    4.5759   52.5056 H       1  <0>         0.0236
     42 H6        -19.8418    3.3552   51.8962 H       1  <0>         0.0236
     43 H7        -15.7189    4.2446   44.5071 H       1  <0>         0.0618
     44 H8        -13.8094    4.6945   46.0148 H       1  <0>         0.0618
     45 H9        -17.7943    5.5684   44.7194 H       1  <0>         0.0618
     46 H10       -13.9856    6.4673   47.7260 H       1  <0>         0.0621
     47 H11       -17.9708    7.3345   46.4413 H       1  <0>         0.0621
     48 H12       -22.8646    9.7787   50.4680 H       1  <0>         0.0625
     49 H13       -19.9335   10.3197   53.5523 H       1  <0>         0.0625
     50 H14       -24.1077   11.7500   51.2976 H       1  <0>         0.0646
     51 H15       -21.1737   12.2987   54.3733 H       1  <0>         0.0646
     52 H16       -20.9106    6.4318   53.8455 H       1  <0>         0.0305
     53 H17       -21.9773    7.8958   54.0506 H       1  <0>         0.0305
     54 H18       -22.3772    5.8759   51.8059 H       1  <0>         0.0469
     55 H19       -23.0203    7.5345   51.9451 H       1  <0>         0.0469
     56 H20       -15.2551    7.8966   49.0067 H       1  <0>         0.0512
     57 H21       -15.8904    9.0617   47.7923 H       1  <0>         0.0512
     58 H22       -23.0900    5.4570   56.6057 H       1  <0>         0.0315
     59 H23       -21.4164    5.9443   56.1105 H       1  <0>         0.0315
     60 H24       -24.0143    7.3157   58.3034 H       1  <0>         0.0350
     61 H25       -22.3690    6.6091   58.4933 H       1  <0>         0.0350
     62 H26       -18.8047    4.9844   50.4966 H       1  <0>         0.0357
     63 H27       -23.8923    6.4112   54.3425 H       1  <0>         0.0594
     64 H28       -21.8492    8.1957   56.3847 H       1  <0>         0.0598
     65 H29       -18.0198    8.7126   48.5879 H       1  <0>         0.1494
     66 H30       -23.4908    4.1834   54.7721 H       1  <0>         0.2098
     67 H31       -23.8676    9.0707   56.1414 H       1  <0>         0.2098
@<TRIPOS>BOND
     1     1    23    1
     2     2    23    1
     3     3     4   ar
     4     3     5   ar
     5     4     6   ar
     6     5     7   ar
     7     6    17   ar
     8     7    17   ar
     9     8    10   ar
    10     8    18   ar
    11     9    11   ar
    12     9    18   ar
    13    10    19   ar
    14    11    19   ar
    15    12    13    1
    16    12    24    1
    17    13    30    1
    18    14    17    1
    19    14    29    1
    20    15    24    1
    21    15    25    1
    22    16    25    1
    23    16    26    1
    24    18    22    1
    25    19    36    1
    26    20    21    2
    27    20    23    1
    28    20    30    1
    29    21    27    1
    30    21    28    1
    31    22    28    2
    32    22    30    1
    33    24    31    1
    34    25    32    1
    35    26    33    1
    36    26    34    2
    37    27    29   am
    38    27    35    2
    39     1    37    1
    40     1    38    1
    41     1    39    1
    42     2    40    1
    43     2    41    1
    44     2    42    1
    45     3    43    1
    46     4    44    1
    47     5    45    1
    48     6    46    1
    49     7    47    1
    50     8    48    1
    51     9    49    1
    52    10    50    1
    53    11    51    1
    54    12    52    1
    55    12    53    1
    56    13    54    1
    57    13    55    1
    58    14    56    1
    59    14    57    1
    60    15    58    1
    61    15    59    1
    62    16    60    1
    63    16    61    1
    64    23    62    1
    65    24    63    1
    66    25    64    1
    67    29    65    1
    68    31    66    1
    69    32    67    1
@<TRIPOS>SUBSTRUCTURE
     1 <0>         1 TEMP              0 ****  ****    0 ROOT

