
##########                                Name:          4HI_1_3CCW
##########                    Molecular_Weight:             496.559
##########                DOCK_Rotatable_Bonds:                  15
##########                       Formal_Charge:             -0.9998
##########                     HBond_Acceptors:                   9
##########                        HBond_Donors:                   3
##########                         Heavy_Atoms:                  36
##########                            HA_RMSDs:              10.936
##########                            HA_RMSDh:               8.744
##########                            HA_RMSDm:               7.115
##########                          Grid_Score:           12.273998
##########                     Grid_vdw_energy:          -39.822262
##########                      Grid_es_energy:           52.096260
##########           Internal_energy_repulsive:           24.068247

@<TRIPOS>MOLECULE
4HI_1_3CCW
 67 69 1 0 0
SMALL
USER_CHARGES


@<TRIPOS>ATOM
      1 C1        -14.6134    7.5341   50.1509 C.3     1  <0>        -0.0574
      2 C2        -16.3023    9.4371   50.0939 C.3     1  <0>        -0.0574
      3 C3        -12.3687    7.4687   44.1879 C.ar    1  <0>        -0.0617
      4 C4        -13.3472    7.2361   43.2269 C.ar    1  <0>        -0.0615
      5 C5        -12.5613    7.0280   45.4940 C.ar    1  <0>        -0.0615
      6 C6        -14.5145    6.5639   43.5784 C.ar    1  <0>        -0.0571
      7 C7        -13.7317    6.3587   45.8437 C.ar    1  <0>        -0.0571
      8 C8        -18.8611    4.0676   52.2710 C.ar    1  <0>        -0.0486
      9 C9        -20.6884    4.7043   50.8178 C.ar    1  <0>        -0.0486
     10 C10       -19.7337    3.3002   53.0383 C.ar    1  <0>        -0.0258
     11 C11       -21.5581    3.9324   51.5862 C.ar    1  <0>        -0.0258
     12 C12       -18.5671    7.8911   52.4699 C.3     1  <0>        -0.0106
     13 C13       -17.3564    7.0153   52.1237 C.3     1  <0>         0.0208
     14 C14       -15.9957    5.4015   45.2075 C.3     1  <0>         0.0372
     15 C15       -19.1650    9.6441   54.1406 C.3     1  <0>        -0.0003
     16 C16       -20.8048   11.3652   54.8866 C.3     1  <0>         0.0130
     17 C17       -14.7127    6.1320   44.8796 C.ar    1  <0>        -0.0303
     18 C18       -19.3442    4.7846   51.1751 C.ar    1  <0>         0.0154
     19 C19       -21.0822    3.2286   52.6949 C.ar    1  <0>         0.1234
     20 C20       -16.9534    7.0459   49.6300 C.2     1  <0>         0.0452
     21 C21       -17.4734    6.3187   48.5631 C.2     1  <0>         0.1449
     22 C22       -18.4283    5.6005   50.3472 C.2     1  <0>         0.1334
     23 C23       -15.8929    8.0840   49.5208 C.3     1  <0>        -0.0060
     24 C24       -18.8411    8.1641   53.9570 C.3     1  <0>         0.0590
     25 C25       -20.6424    9.9291   54.4006 C.3     1  <0>         0.0626
     26 C26       -21.9592   12.0419   54.1788 C.2     1  <0>         0.0442
     27 C27       -17.0775    6.5178   47.1498 C.2     1  <0>         0.2642
     28 N1        -18.3738    5.4502   49.0187 N.2     1  <0>        -0.2249
     29 N2        -16.3208    5.5667   46.6133 N.am    1  <0>        -0.3059
     30 N3        -17.5560    6.5608   50.7392 N.pl3   1  <0>        -0.2858
     31 O1        -17.7148    7.8962   54.7837 O.3     1  <0>        -0.3916
     32 O2        -21.1229    9.0602   55.4000 O.3     1  <0>        -0.3913
     33 O3        -22.9367   12.4382   54.8655 O.co2   1  <0>        -0.5497
     34 O4        -21.8859   12.1668   52.9311 O.co2   1  <0>        -0.5497
     35 O5        -17.6354    7.3730   46.4671 O.2     1  <0>        -0.2685
     36 F1        -21.9265    2.4868   53.4386 F       1  <0>        -0.2055
     37 H1        -14.3704    6.5611   49.6989 H       1  <0>         0.0236
     38 H2        -13.7862    8.2372   49.9739 H       1  <0>         0.0236
     39 H3        -14.7627    7.4083   51.2334 H       1  <0>         0.0236
     40 H4        -17.2255    9.7795   49.6035 H       1  <0>         0.0236
     41 H5        -16.4765    9.3393   51.1757 H       1  <0>         0.0236
     42 H6        -15.4999   10.1683   49.9162 H       1  <0>         0.0236
     43 H7        -11.4613    7.9901   43.9210 H       1  <0>         0.0618
     44 H8        -13.2018    7.5757   42.2120 H       1  <0>         0.0618
     45 H9        -11.8002    7.2057   46.2394 H       1  <0>         0.0618
     46 H10       -15.2715    6.3777   42.8308 H       1  <0>         0.0621
     47 H11       -13.8786    6.0169   46.8575 H       1  <0>         0.0621
     48 H12       -17.8118    4.1082   52.5236 H       1  <0>         0.0625
     49 H13       -21.0538    5.2362   49.9518 H       1  <0>         0.0625
     50 H14       -19.3656    2.7610   53.8986 H       1  <0>         0.0646
     51 H15       -22.6042    3.8782   51.3232 H       1  <0>         0.0646
     52 H16       -18.4031    8.8675   51.9906 H       1  <0>         0.0305
     53 H17       -19.4558    7.3812   52.0693 H       1  <0>         0.0305
     54 H18       -16.4249    7.5940   52.2091 H       1  <0>         0.0469
     55 H19       -17.2948    6.1552   52.8067 H       1  <0>         0.0469
     56 H20       -16.8128    5.8117   44.5959 H       1  <0>         0.0512
     57 H21       -15.8695    4.3310   44.9880 H       1  <0>         0.0512
     58 H22       -18.5909   10.0130   55.0033 H       1  <0>         0.0315
     59 H23       -18.8740   10.1721   53.2206 H       1  <0>         0.0315
     60 H24       -21.0012   11.3583   55.9689 H       1  <0>         0.0350
     61 H25       -19.8793   11.9219   54.6781 H       1  <0>         0.0350
     62 H26       -15.7150    8.2948   48.4559 H       1  <0>         0.0357
     63 H27       -19.6706    7.5031   54.2486 H       1  <0>         0.0594
     64 H28       -21.2072    9.7786   53.4687 H       1  <0>         0.0598
     65 H29       -15.9345    4.8935   47.2439 H       1  <0>         0.1494
     66 H30       -17.9370    8.0744   55.6900 H       1  <0>         0.2098
     67 H31       -22.0657    9.1517   55.4732 H       1  <0>         0.2098
@<TRIPOS>BOND
     1     1    23    1
     2     2    23    1
     3     3     4   ar
     4     3     5   ar
     5     4     6   ar
     6     5     7   ar
     7     6    17   ar
     8     7    17   ar
     9     8    10   ar
    10     8    18   ar
    11     9    11   ar
    12     9    18   ar
    13    10    19   ar
    14    11    19   ar
    15    12    13    1
    16    12    24    1
    17    13    30    1
    18    14    17    1
    19    14    29    1
    20    15    24    1
    21    15    25    1
    22    16    25    1
    23    16    26    1
    24    18    22    1
    25    19    36    1
    26    20    21    2
    27    20    23    1
    28    20    30    1
    29    21    27    1
    30    21    28    1
    31    22    28    2
    32    22    30    1
    33    24    31    1
    34    25    32    1
    35    26    33    1
    36    26    34    2
    37    27    29   am
    38    27    35    2
    39     1    37    1
    40     1    38    1
    41     1    39    1
    42     2    40    1
    43     2    41    1
    44     2    42    1
    45     3    43    1
    46     4    44    1
    47     5    45    1
    48     6    46    1
    49     7    47    1
    50     8    48    1
    51     9    49    1
    52    10    50    1
    53    11    51    1
    54    12    52    1
    55    12    53    1
    56    13    54    1
    57    13    55    1
    58    14    56    1
    59    14    57    1
    60    15    58    1
    61    15    59    1
    62    16    60    1
    63    16    61    1
    64    23    62    1
    65    24    63    1
    66    25    64    1
    67    29    65    1
    68    31    66    1
    69    32    67    1
@<TRIPOS>SUBSTRUCTURE
     1 <0>         1 TEMP              0 ****  ****    0 ROOT

