
##########                                Name:          BDV_1_3L5D
##########                    Molecular_Weight:             391.557
##########                DOCK_Rotatable_Bonds:                  11
##########                       Formal_Charge:              1.9993
##########                     HBond_Acceptors:                   7
##########                        HBond_Donors:                   7
##########                         Heavy_Atoms:                  28
##########                            HA_RMSDs:               0.743
##########                            HA_RMSDh:               0.743
##########                            HA_RMSDm:               0.719
##########                          Grid_Score:         -197.407944
##########                     Grid_vdw_energy:          -39.738346
##########                      Grid_es_energy:         -157.669601
##########           Internal_energy_repulsive:           28.739910

@<TRIPOS>MOLECULE
BDV_1_3L5D
 65 66 1 0 0
SMALL
USER_CHARGES


@<TRIPOS>ATOM
      1 C1         28.4513   11.1719   20.8749 C.3     1  <0>        -0.0652
      2 C2         24.0763   12.6617   20.3783 C.3     1  <0>        -0.0625
      3 C3         24.3013   10.1993   19.8271 C.3     1  <0>        -0.0625
      4 C4         19.6314   10.7776   21.1129 C.3     1  <0>        -0.0098
      5 C5         23.9219   15.7416   24.7363 C.ar    1  <0>        -0.0568
      6 C6         25.3823   13.9571   23.8589 C.ar    1  <0>        -0.0568
      7 C7         22.8775   14.7885   24.9406 C.ar    1  <0>        -0.0568
      8 C8         24.3424   13.0076   24.0639 C.ar    1  <0>        -0.0568
      9 C9         28.6614   12.4645   21.6397 C.3     1  <0>        -0.0545
     10 C10        28.4833   13.6908   20.7616 C.3     1  <0>        -0.0376
     11 C11        29.1107   14.9373   21.3885 C.3     1  <0>         0.0130
     12 C12        26.2864   16.3365   23.9769 C.3     1  <0>         0.0383
     13 C13        21.9750   12.4000   24.8213 C.3     1  <0>         0.0502
     14 C14        22.0102   11.2054   20.2477 C.3     1  <0>         0.0041
     15 C15        25.1760   15.3270   24.1947 C.ar    1  <0>        -0.0303
     16 C16        23.0852   13.4177   24.6043 C.ar    1  <0>        -0.0297
     17 C17        21.9294   10.2885   23.4665 C.3     1  <0>         0.0736
     18 C18        21.2289   12.1051   22.4617 C.2     1  <0>         0.2753
     19 C19        23.5022   11.2591   20.5835 C.3     1  <0>        -0.0409
     20 C20        28.3948   15.2132   23.6788 C.2     1  <0>         0.2999
     21 C21        21.1219   10.9441   21.4698 C.3     1  <0>         0.0706
     22 N1         22.4140    9.5340   24.4513 N.4     1  <0>         0.2701
     23 N2         21.6076    9.8138   22.2417 N.4     1  <0>         0.2881
     24 N3         29.3266   14.7501   22.8197 N.am    1  <0>        -0.2994
     25 N4         27.3363   15.8149   23.0966 N.am    1  <0>        -0.2953
     26 N5         21.7154   11.6132   23.6123 N.am    1  <0>        -0.2106
     27 O1         20.9148   13.2727   22.2202 O.2     1  <0>        -0.2687
     28 O2         28.4987   15.0952   24.8998 O.2     1  <0>        -0.2529
     29 H1         28.5910   10.3171   21.5531 H       1  <0>         0.0230
     30 H2         27.4312   11.1508   20.4640 H       1  <0>         0.0230
     31 H3         29.1793   11.1101   20.0526 H       1  <0>         0.0230
     32 H4         23.4728   13.3911   20.9384 H       1  <0>         0.0232
     33 H5         25.1144   12.6895   20.7410 H       1  <0>         0.0232
     34 H6         24.0549   12.9135   19.3077 H       1  <0>         0.0232
     35 H7         23.8554    9.2091   20.0020 H       1  <0>         0.0232
     36 H8         24.2823   10.4249   18.7507 H       1  <0>         0.0232
     37 H9         25.3418   10.2009   20.1840 H       1  <0>         0.0232
     38 H10        19.0525   10.5936   22.0300 H       1  <0>         0.0292
     39 H11        19.2663   11.6943   20.6267 H       1  <0>         0.0292
     40 H12        19.5117    9.9259   20.4270 H       1  <0>         0.0292
     41 H13        23.7623   16.7786   24.9922 H       1  <0>         0.0621
     42 H14        26.3293   13.6394   23.4484 H       1  <0>         0.0621
     43 H15        21.9299   15.1060   25.3500 H       1  <0>         0.0621
     44 H16        24.5046   11.9707   23.8094 H       1  <0>         0.0621
     45 H17        27.9266   12.5104   22.4570 H       1  <0>         0.0263
     46 H18        29.6847   12.4694   22.0433 H       1  <0>         0.0263
     47 H19        28.9673   13.5028   19.7918 H       1  <0>         0.0280
     48 H20        27.4072   13.8706   20.6218 H       1  <0>         0.0280
     49 H21        30.0784   15.1331   20.9035 H       1  <0>         0.0462
     50 H22        28.4352   15.7922   21.2375 H       1  <0>         0.0462
     51 H23        25.8567   17.2381   23.5160 H       1  <0>         0.0512
     52 H24        26.7342   16.5826   24.9510 H       1  <0>         0.0512
     53 H25        22.2756   11.7167   25.6292 H       1  <0>         0.0518
     54 H26        21.0549   12.9351   25.0985 H       1  <0>         0.0518
     55 H27        21.7207   12.1736   19.8131 H       1  <0>         0.0330
     56 H28        21.8495   10.3914   19.5256 H       1  <0>         0.0330
     57 H29        22.3189    9.5277   24.1590 H       1  <0>         0.1733
     58 H30        23.5987   11.0219   21.6532 H       1  <0>         0.0298
     59 H31        22.5755   10.1018   25.2584 H       1  <0>         0.2071
     60 H32        21.7554    8.8156   24.6756 H       1  <0>         0.2071
     61 H33        23.2750    9.1176   24.1593 H       1  <0>         0.2071
     62 H34        22.4102    9.4106   21.8022 H       1  <0>         0.2104
     63 H35        20.8993    9.1117   22.3151 H       1  <0>         0.2104
     64 H36        30.1474   14.2886   23.1564 H       1  <0>         0.1502
     65 H37        27.2707   15.9016   22.1025 H       1  <0>         0.1506
@<TRIPOS>BOND
     1     1     9    1
     2     2    19    1
     3     3    19    1
     4     4    21    1
     5     5     7   ar
     6     5    15   ar
     7     6     8   ar
     8     6    15   ar
     9     7    16   ar
    10     8    16   ar
    11     9    10    1
    12    10    11    1
    13    11    24    1
    14    12    15    1
    15    12    25    1
    16    13    16    1
    17    13    26    1
    18    14    19    1
    19    14    21    1
    20    17    22    1
    21    17    23    1
    22    17    26    1
    23    18    21    1
    24    18    26   am
    25    18    27    2
    26    20    24   am
    27    20    25   am
    28    20    28    2
    29    21    23    1
    30     1    29    1
    31     1    30    1
    32     1    31    1
    33     2    32    1
    34     2    33    1
    35     2    34    1
    36     3    35    1
    37     3    36    1
    38     3    37    1
    39     4    38    1
    40     4    39    1
    41     4    40    1
    42     5    41    1
    43     6    42    1
    44     7    43    1
    45     8    44    1
    46     9    45    1
    47     9    46    1
    48    10    47    1
    49    10    48    1
    50    11    49    1
    51    11    50    1
    52    12    51    1
    53    12    52    1
    54    13    53    1
    55    13    54    1
    56    14    55    1
    57    14    56    1
    58    17    57    1
    59    19    58    1
    60    22    59    1
    61    22    60    1
    62    22    61    1
    63    23    62    1
    64    23    63    1
    65    24    64    1
    66    25    65    1
@<TRIPOS>SUBSTRUCTURE
     1 <0>         1 TEMP              0 ****  ****    0 ROOT

