
##########                                Name:          BDV_1_3L5D
##########                    Molecular_Weight:             391.557
##########                DOCK_Rotatable_Bonds:                  11
##########                       Formal_Charge:              1.9993
##########                     HBond_Acceptors:                   7
##########                        HBond_Donors:                   7
##########                         Heavy_Atoms:                  28
##########                            HA_RMSDs:               1.725
##########                            HA_RMSDh:               1.725
##########                            HA_RMSDm:               1.437
##########                          Grid_Score:         -193.885651
##########                     Grid_vdw_energy:          -34.568882
##########                      Grid_es_energy:         -159.316772
##########           Internal_energy_repulsive:           28.758614

@<TRIPOS>MOLECULE
BDV_1_3L5D
 65 66 1 0 0
SMALL
USER_CHARGES


@<TRIPOS>ATOM
      1 C1         29.0410   12.6899   21.2764 C.3     1  <0>        -0.0652
      2 C2         23.2630   13.6514   20.0079 C.3     1  <0>        -0.0625
      3 C3         24.5511   11.5714   20.6654 C.3     1  <0>        -0.0625
      4 C4         20.1473   10.1115   21.6497 C.3     1  <0>        -0.0098
      5 C5         23.4230   16.0585   25.6487 C.ar    1  <0>        -0.0568
      6 C6         24.9221   14.7605   24.1808 C.ar    1  <0>        -0.0568
      7 C7         22.5626   14.9250   25.7749 C.ar    1  <0>        -0.0568
      8 C8         24.0657   13.6311   24.3078 C.ar    1  <0>        -0.0568
      9 C9         29.3931   13.8558   22.1803 C.3     1  <0>        -0.0545
     10 C10        28.6066   15.1094   21.8390 C.3     1  <0>        -0.0376
     11 C11        28.9780   16.2814   22.7493 C.3     1  <0>         0.0130
     12 C12        25.5192   17.1792   24.7153 C.3     1  <0>         0.0383
     13 C13        21.9680   12.4979   25.2367 C.3     1  <0>         0.0502
     14 C14        22.0146   11.5332   20.6094 C.3     1  <0>         0.0041
     15 C15        24.6040   15.9777   24.8509 C.ar    1  <0>        -0.0303
     16 C16        22.8819   13.7072   25.1038 C.ar    1  <0>        -0.0297
     17 C17        22.6742   10.5995   23.7559 C.3     1  <0>         0.0736
     18 C18        21.1684   11.9643   22.9374 C.2     1  <0>         0.2753
     19 C19        23.2672   12.3775   20.8542 C.3     1  <0>        -0.0409
     20 C20        27.7188   16.2052   24.8092 C.2     1  <0>         0.2999
     21 C21        21.4566   10.8909   21.8848 C.3     1  <0>         0.0706
     22 N1         23.5347   10.1028   24.6430 N.4     1  <0>         0.2701
     23 N2         22.4540   10.0597   22.5356 N.4     1  <0>         0.2881
     24 N3         28.8613   15.9082   24.1554 N.am    1  <0>        -0.2994
     25 N4         26.7856   16.8326   24.0631 N.am    1  <0>        -0.2953
     26 N5         21.9374   11.7023   24.0063 N.am    1  <0>        -0.2106
     27 O1         20.3664   12.8909   22.8012 O.2     1  <0>        -0.2687
     28 O2         27.5382   15.9243   25.9941 O.2     1  <0>        -0.2529
     29 H1         29.6354   11.8100   21.5637 H       1  <0>         0.0230
     30 H2         27.9705   12.4580   21.3776 H       1  <0>         0.0230
     31 H3         29.2615   12.9561   20.2322 H       1  <0>         0.0230
     32 H4         22.3237   14.1993   20.1739 H       1  <0>         0.0232
     33 H5         24.1135   14.2862   20.2969 H       1  <0>         0.0232
     34 H6         23.3488   13.3850   18.9441 H       1  <0>         0.0232
     35 H7         24.5119   10.6668   21.2901 H       1  <0>         0.0232
     36 H8         24.6506   11.2829   19.6086 H       1  <0>         0.0232
     37 H9         25.4154   12.1841   20.9613 H       1  <0>         0.0232
     38 H10        19.8024    9.6779   22.6000 H       1  <0>         0.0292
     39 H11        19.3792   10.7948   21.2584 H       1  <0>         0.0292
     40 H12        20.3260    9.3055   20.9226 H       1  <0>         0.0292
     41 H13        23.1793   16.9790   26.1582 H       1  <0>         0.0621
     42 H14        25.8143   14.6953   23.5757 H       1  <0>         0.0621
     43 H15        21.6696   14.9901   26.3789 H       1  <0>         0.0621
     44 H16        24.3122   12.7107   23.7993 H       1  <0>         0.0621
     45 H17        29.1668   13.5734   23.2191 H       1  <0>         0.0263
     46 H18        30.4652   14.0743   22.0671 H       1  <0>         0.0263
     47 H19        28.8246   15.3894   20.7978 H       1  <0>         0.0280
     48 H20        27.5342   14.8961   21.9594 H       1  <0>         0.0280
     49 H21        30.0167   16.5789   22.5434 H       1  <0>         0.0462
     50 H22        28.2989   17.1222   22.5450 H       1  <0>         0.0462
     51 H23        25.0093   17.9432   24.1101 H       1  <0>         0.0512
     52 H24        25.7365   17.5711   25.7199 H       1  <0>         0.0512
     53 H25        22.3371   11.8650   26.0572 H       1  <0>         0.0518
     54 H26        20.9486   12.8484   25.4559 H       1  <0>         0.0518
     55 H27        21.2376   12.1861   20.1851 H       1  <0>         0.0330
     56 H28        22.2742   10.7292   19.9049 H       1  <0>         0.0330
     57 H29        23.4205   10.0630   24.3604 H       1  <0>         0.1733
     58 H30        23.2431   12.6881   21.9091 H       1  <0>         0.0298
     59 H31        23.5265   10.6674   25.4683 H       1  <0>         0.2071
     60 H32        23.2696    9.1673   24.8767 H       1  <0>         0.2071
     61 H33        24.4543   10.1007   24.2501 H       1  <0>         0.2071
     62 H34        23.2996   10.0477   22.0020 H       1  <0>         0.2104
     63 H35        22.1212    9.1209   22.6246 H       1  <0>         0.2104
     64 H36        29.6118   15.4424   24.6243 H       1  <0>         0.1502
     65 H37        26.9517   17.0529   23.1018 H       1  <0>         0.1506
@<TRIPOS>BOND
     1     1     9    1
     2     2    19    1
     3     3    19    1
     4     4    21    1
     5     5     7   ar
     6     5    15   ar
     7     6     8   ar
     8     6    15   ar
     9     7    16   ar
    10     8    16   ar
    11     9    10    1
    12    10    11    1
    13    11    24    1
    14    12    15    1
    15    12    25    1
    16    13    16    1
    17    13    26    1
    18    14    19    1
    19    14    21    1
    20    17    22    1
    21    17    23    1
    22    17    26    1
    23    18    21    1
    24    18    26   am
    25    18    27    2
    26    20    24   am
    27    20    25   am
    28    20    28    2
    29    21    23    1
    30     1    29    1
    31     1    30    1
    32     1    31    1
    33     2    32    1
    34     2    33    1
    35     2    34    1
    36     3    35    1
    37     3    36    1
    38     3    37    1
    39     4    38    1
    40     4    39    1
    41     4    40    1
    42     5    41    1
    43     6    42    1
    44     7    43    1
    45     8    44    1
    46     9    45    1
    47     9    46    1
    48    10    47    1
    49    10    48    1
    50    11    49    1
    51    11    50    1
    52    12    51    1
    53    12    52    1
    54    13    53    1
    55    13    54    1
    56    14    55    1
    57    14    56    1
    58    17    57    1
    59    19    58    1
    60    22    59    1
    61    22    60    1
    62    22    61    1
    63    23    62    1
    64    23    63    1
    65    24    64    1
    66    25    65    1
@<TRIPOS>SUBSTRUCTURE
     1 <0>         1 TEMP              0 ****  ****    0 ROOT

