
##########                                Name:          BDV_1_3L5D
##########                    Molecular_Weight:             391.557
##########                DOCK_Rotatable_Bonds:                  11
##########                       Formal_Charge:              1.9993
##########                     HBond_Acceptors:                   7
##########                        HBond_Donors:                   7
##########                         Heavy_Atoms:                  28
##########                            HA_RMSDs:               0.495
##########                            HA_RMSDh:               0.495
##########                            HA_RMSDm:               0.495
##########                          Grid_Score:         -199.011993
##########                     Grid_vdw_energy:          -36.876583
##########                      Grid_es_energy:         -162.135406
##########           Internal_energy_repulsive:           27.980364

@<TRIPOS>MOLECULE
BDV_1_3L5D
 65 66 1 0 0
SMALL
USER_CHARGES


@<TRIPOS>ATOM
      1 C1         28.6471   10.6292   21.0260 C.3     1  <0>        -0.0652
      2 C2         23.7651   12.1694   19.6541 C.3     1  <0>        -0.0625
      3 C3         23.7938    9.6671   20.0485 C.3     1  <0>        -0.0625
      4 C4         19.5453   10.2094   21.6474 C.3     1  <0>        -0.0098
      5 C5         24.2911   15.5946   24.8792 C.ar    1  <0>        -0.0568
      6 C6         25.3251   13.8912   23.4245 C.ar    1  <0>        -0.0568
      7 C7         23.2199   14.6959   25.1727 C.ar    1  <0>        -0.0568
      8 C8         24.2589   12.9957   23.7181 C.ar    1  <0>        -0.0568
      9 C9         28.9428   11.9713   21.6675 C.3     1  <0>        -0.0545
     10 C10        28.5108   13.1366   20.7945 C.3     1  <0>        -0.0376
     11 C11        29.2141   14.4365   21.1894 C.3     1  <0>         0.0130
     12 C12        26.4834   16.1451   23.6910 C.3     1  <0>         0.0383
     13 C13        22.0620   12.4331   24.9030 C.3     1  <0>         0.0502
     14 C14        21.6605   10.9898   20.4196 C.3     1  <0>         0.0041
     15 C15        25.3452   15.1933   24.0042 C.ar    1  <0>        -0.0303
     16 C16        23.2010   13.3929   24.5920 C.ar    1  <0>        -0.0297
     17 C17        22.2050   10.2680   23.6430 C.3     1  <0>         0.0736
     18 C18        21.0531   11.8721   22.6943 C.2     1  <0>         0.2753
     19 C19        23.1900   11.0072   20.4649 C.3     1  <0>        -0.0409
     20 C20        28.6018   15.0269   23.4501 C.2     1  <0>         0.2999
     21 C21        21.0169   10.6527   21.7698 C.3     1  <0>         0.0706
     22 N1         22.9527    9.6694   24.5685 N.4     1  <0>         0.2701
     23 N2         21.8030    9.6720   22.4975 N.4     1  <0>         0.2881
     24 N3         29.5025   14.4609   22.6198 N.am    1  <0>        -0.2994
     25 N4         27.5025   15.5203   22.8423 N.am    1  <0>        -0.2953
     26 N5         21.7789   11.5420   23.7744 N.am    1  <0>        -0.2106
     27 O1         20.5027   12.9511   22.4634 O.2     1  <0>        -0.2687
     28 O2         28.7666   15.0876   24.6685 O.2     1  <0>        -0.2529
     29 H1         28.9776    9.8214   21.6956 H       1  <0>         0.0230
     30 H2         27.5654   10.5384   20.8483 H       1  <0>         0.0230
     31 H3         29.1837   10.5544   20.0687 H       1  <0>         0.0230
     32 H4         23.3044   13.1117   19.9854 H       1  <0>         0.0232
     33 H5         24.8532   12.2199   19.8069 H       1  <0>         0.0232
     34 H6         23.5514   12.0126   18.5865 H       1  <0>         0.0232
     35 H7         23.3536    8.8618   20.6548 H       1  <0>         0.0232
     36 H8         23.5805    9.4837   18.9850 H       1  <0>         0.0232
     37 H9         24.8823    9.6910   20.2054 H       1  <0>         0.0232
     38 H10        19.1456    9.9836   22.6470 H       1  <0>         0.0292
     39 H11        18.9557   11.0182   21.1910 H       1  <0>         0.0292
     40 H12        19.4846    9.3102   21.0166 H       1  <0>         0.0292
     41 H13        24.3033   16.5802   25.3206 H       1  <0>         0.0621
     42 H14        26.1203   13.5839   22.7615 H       1  <0>         0.0621
     43 H15        22.4239   15.0032   25.8347 H       1  <0>         0.0621
     44 H16        24.2495   12.0096   23.2775 H       1  <0>         0.0621
     45 H17        28.3995   12.0296   22.6222 H       1  <0>         0.0263
     46 H18        30.0270   12.0457   21.8382 H       1  <0>         0.0263
     47 H19        28.7606   12.9047   19.7487 H       1  <0>         0.0280
     48 H20        27.4253   13.2759   20.9050 H       1  <0>         0.0280
     49 H21        30.1595   14.5150   20.6326 H       1  <0>         0.0462
     50 H22        28.5607   15.2861   20.9417 H       1  <0>         0.0462
     51 H23        26.0753   17.0203   23.1645 H       1  <0>         0.0512
     52 H24        26.9539   16.4539   24.6362 H       1  <0>         0.0512
     53 H25        22.3430   11.8220   25.7733 H       1  <0>         0.0518
     54 H26        21.1578   13.0187   25.1257 H       1  <0>         0.0518
     55 H27        21.3144   11.9881   20.1136 H       1  <0>         0.0330
     56 H28        21.3469   10.2289   19.6898 H       1  <0>         0.0330
     57 H29        22.8197    9.6292   24.2943 H       1  <0>         0.1733
     58 H30        23.4777   11.1693   21.5142 H       1  <0>         0.0298
     59 H31        23.1224   10.3041   25.3224 H       1  <0>         0.2071
     60 H32        22.4730    8.8627   24.9138 H       1  <0>         0.2071
     61 H33        23.8241    9.3916   24.1644 H       1  <0>         0.2071
     62 H34        22.5942    9.3882   21.9560 H       1  <0>         0.2104
     63 H35        21.2505    8.8636   22.7005 H       1  <0>         0.2104
     64 H36        30.3493   14.0668   22.9769 H       1  <0>         0.1502
     65 H37        27.3874   15.4619   21.8506 H       1  <0>         0.1506
@<TRIPOS>BOND
     1     1     9    1
     2     2    19    1
     3     3    19    1
     4     4    21    1
     5     5     7   ar
     6     5    15   ar
     7     6     8   ar
     8     6    15   ar
     9     7    16   ar
    10     8    16   ar
    11     9    10    1
    12    10    11    1
    13    11    24    1
    14    12    15    1
    15    12    25    1
    16    13    16    1
    17    13    26    1
    18    14    19    1
    19    14    21    1
    20    17    22    1
    21    17    23    1
    22    17    26    1
    23    18    21    1
    24    18    26   am
    25    18    27    2
    26    20    24   am
    27    20    25   am
    28    20    28    2
    29    21    23    1
    30     1    29    1
    31     1    30    1
    32     1    31    1
    33     2    32    1
    34     2    33    1
    35     2    34    1
    36     3    35    1
    37     3    36    1
    38     3    37    1
    39     4    38    1
    40     4    39    1
    41     4    40    1
    42     5    41    1
    43     6    42    1
    44     7    43    1
    45     8    44    1
    46     9    45    1
    47     9    46    1
    48    10    47    1
    49    10    48    1
    50    11    49    1
    51    11    50    1
    52    12    51    1
    53    12    52    1
    54    13    53    1
    55    13    54    1
    56    14    55    1
    57    14    56    1
    58    17    57    1
    59    19    58    1
    60    22    59    1
    61    22    60    1
    62    22    61    1
    63    23    62    1
    64    23    63    1
    65    24    64    1
    66    25    65    1
@<TRIPOS>SUBSTRUCTURE
     1 <0>         1 TEMP              0 ****  ****    0 ROOT

