
##########                                Name:          BDV_1_3L5D
##########                    Molecular_Weight:             391.557
##########                DOCK_Rotatable_Bonds:                  11
##########                       Formal_Charge:              1.9993
##########                     HBond_Acceptors:                   7
##########                        HBond_Donors:                   7
##########                         Heavy_Atoms:                  28
##########                            HA_RMSDs:               0.799
##########                            HA_RMSDh:               0.799
##########                            HA_RMSDm:               0.765
##########                          Grid_Score:         -199.194672
##########                     Grid_vdw_energy:          -38.880627
##########                      Grid_es_energy:         -160.314041
##########           Internal_energy_repulsive:           31.541500

@<TRIPOS>MOLECULE
BDV_1_3L5D
 65 66 1 0 0
SMALL
USER_CHARGES


@<TRIPOS>ATOM
      1 C1         29.4023   11.3170   20.4289 C.3     1  <0>        -0.0652
      2 C2         23.9151   12.1685   19.4263 C.3     1  <0>        -0.0625
      3 C3         24.1384    9.7284   20.0694 C.3     1  <0>        -0.0625
      4 C4         19.7876    9.8999   21.3153 C.3     1  <0>        -0.0098
      5 C5         23.7167   15.8635   24.4123 C.ar    1  <0>        -0.0568
      6 C6         25.2274   14.0698   23.6458 C.ar    1  <0>        -0.0568
      7 C7         22.6883   14.8996   24.6458 C.ar    1  <0>        -0.0568
      8 C8         24.2034   13.1097   23.8799 C.ar    1  <0>        -0.0568
      9 C9         29.2814   12.3415   21.5406 C.3     1  <0>        -0.0545
     10 C10        28.8784   13.7112   21.0227 C.3     1  <0>        -0.0376
     11 C11        29.3893   14.8355   21.9256 C.3     1  <0>         0.0130
     12 C12        26.0813   16.4704   23.6629 C.3     1  <0>         0.0383
     13 C13        21.8363   12.4897   24.6278 C.3     1  <0>         0.0502
     14 C14        21.8772   10.8736   20.1858 C.3     1  <0>         0.0041
     15 C15        24.9878   15.4496   23.9115 C.ar    1  <0>        -0.0303
     16 C16        22.9292   13.5188   24.3796 C.ar    1  <0>        -0.0297
     17 C17        22.2946   10.3165   23.4604 C.3     1  <0>         0.0736
     18 C18        21.0354   11.7520   22.3861 C.2     1  <0>         0.2753
     19 C19        23.3929   11.0389   20.3153 C.3     1  <0>        -0.0409
     20 C20        28.0311   15.0799   23.9081 C.2     1  <0>         0.2999
     21 C21        21.1911   10.5083   21.5074 C.3     1  <0>         0.0706
     22 N1         23.0439    9.8339   24.4501 N.4     1  <0>         0.2701
     23 N2         22.0328    9.6444   22.3164 N.4     1  <0>         0.2881
     24 N3         29.1240   14.5392   23.3298 N.am    1  <0>        -0.2994
     25 N4         27.2852   15.8566   23.0947 N.am    1  <0>        -0.2953
     26 N5         21.7239   11.5383   23.5187 N.am    1  <0>        -0.2106
     27 O1         20.3856   12.7551   22.0829 O.2     1  <0>        -0.2687
     28 O2         27.7339   14.8796   25.0858 O.2     1  <0>        -0.2529
     29 H1         29.6951   10.3459   20.8547 H       1  <0>         0.0230
     30 H2         28.4341   11.2157   19.9169 H       1  <0>         0.0230
     31 H3         30.1656   11.6464   19.7085 H       1  <0>         0.0230
     32 H4         23.3525   13.0903   19.6354 H       1  <0>         0.0232
     33 H5         24.9822   12.3353   19.6344 H       1  <0>         0.0232
     34 H6         23.7863   11.8924   18.3693 H       1  <0>         0.0232
     35 H7         23.7322    8.9459   20.7273 H       1  <0>         0.0232
     36 H8         24.0120    9.4263   19.0193 H       1  <0>         0.0232
     37 H9         25.2079    9.8692   20.2844 H       1  <0>         0.0232
     38 H10        19.3532    9.6616   22.2974 H       1  <0>         0.0292
     39 H11        19.1426   10.6233   20.7950 H       1  <0>         0.0292
     40 H12        19.8654    8.9806   20.7162 H       1  <0>         0.0292
     41 H13        23.5319   16.9080   24.6152 H       1  <0>         0.0621
     42 H14        26.1874   13.7525   23.2662 H       1  <0>         0.0621
     43 H15        21.7277   15.2165   25.0242 H       1  <0>         0.0621
     44 H16        24.3908   12.0653   23.6784 H       1  <0>         0.0621
     45 H17        28.5153   11.9974   22.2511 H       1  <0>         0.0263
     46 H18        30.2567   12.4304   22.0415 H       1  <0>         0.0263
     47 H19        29.3034   13.8465   20.0172 H       1  <0>         0.0280
     48 H20        27.7804   13.7634   20.9824 H       1  <0>         0.0280
     49 H21        30.4744   14.9444   21.7820 H       1  <0>         0.0462
     50 H22        28.8788   15.7715   21.6549 H       1  <0>         0.0462
     51 H23        25.7042   17.2248   22.9567 H       1  <0>         0.0512
     52 H24        26.3457   16.9430   24.6204 H       1  <0>         0.0512
     53 H25        22.0766   11.9342   25.5463 H       1  <0>         0.0518
     54 H26        20.8764   13.0147   24.7411 H       1  <0>         0.0518
     55 H27        21.4565   11.8265   19.8321 H       1  <0>         0.0330
     56 H28        21.6798   10.0690   19.4621 H       1  <0>         0.0330
     57 H29        22.9335    9.7707   24.1702 H       1  <0>         0.1733
     58 H30        23.5961   11.3255   21.3577 H       1  <0>         0.0298
     59 H31        23.0954   10.5064   25.1883 H       1  <0>         0.2071
     60 H32        22.6348    8.9896   24.7965 H       1  <0>         0.2071
     61 H33        23.9641    9.6429   24.1086 H       1  <0>         0.2071
     62 H34        22.8828    9.4342   21.8333 H       1  <0>         0.2104
     63 H35        21.5606    8.7860   22.5167 H       1  <0>         0.2104
     64 H36        29.7388   13.9484   23.8522 H       1  <0>         0.1502
     65 H37        27.5440   16.0076   22.1406 H       1  <0>         0.1506
@<TRIPOS>BOND
     1     1     9    1
     2     2    19    1
     3     3    19    1
     4     4    21    1
     5     5     7   ar
     6     5    15   ar
     7     6     8   ar
     8     6    15   ar
     9     7    16   ar
    10     8    16   ar
    11     9    10    1
    12    10    11    1
    13    11    24    1
    14    12    15    1
    15    12    25    1
    16    13    16    1
    17    13    26    1
    18    14    19    1
    19    14    21    1
    20    17    22    1
    21    17    23    1
    22    17    26    1
    23    18    21    1
    24    18    26   am
    25    18    27    2
    26    20    24   am
    27    20    25   am
    28    20    28    2
    29    21    23    1
    30     1    29    1
    31     1    30    1
    32     1    31    1
    33     2    32    1
    34     2    33    1
    35     2    34    1
    36     3    35    1
    37     3    36    1
    38     3    37    1
    39     4    38    1
    40     4    39    1
    41     4    40    1
    42     5    41    1
    43     6    42    1
    44     7    43    1
    45     8    44    1
    46     9    45    1
    47     9    46    1
    48    10    47    1
    49    10    48    1
    50    11    49    1
    51    11    50    1
    52    12    51    1
    53    12    52    1
    54    13    53    1
    55    13    54    1
    56    14    55    1
    57    14    56    1
    58    17    57    1
    59    19    58    1
    60    22    59    1
    61    22    60    1
    62    22    61    1
    63    23    62    1
    64    23    63    1
    65    24    64    1
    66    25    65    1
@<TRIPOS>SUBSTRUCTURE
     1 <0>         1 TEMP              0 ****  ****    0 ROOT

