
##########                                Name:          BDV_1_3L5D
##########                    Molecular_Weight:             391.557
##########                DOCK_Rotatable_Bonds:                  11
##########                       Formal_Charge:              1.9993
##########                     HBond_Acceptors:                   7
##########                        HBond_Donors:                   7
##########                         Heavy_Atoms:                  28
##########                            HA_RMSDs:               0.771
##########                            HA_RMSDh:               0.771
##########                            HA_RMSDm:               0.763
##########                          Grid_Score:         -199.355392
##########                     Grid_vdw_energy:          -40.066330
##########                      Grid_es_energy:         -159.289062
##########           Internal_energy_repulsive:           28.498934

@<TRIPOS>MOLECULE
BDV_1_3L5D
 65 66 1 0 0
SMALL
USER_CHARGES


@<TRIPOS>ATOM
      1 C1         29.0601   10.6551   20.4648 C.3     1  <0>        -0.0652
      2 C2         22.5931   13.0773   20.1341 C.3     1  <0>        -0.0625
      3 C3         23.2567   10.6433   20.3648 C.3     1  <0>        -0.0625
      4 C4         18.9216   10.6399   22.4084 C.3     1  <0>        -0.0098
      5 C5         24.2893   15.6866   25.1864 C.ar    1  <0>        -0.0568
      6 C6         25.0769   13.9661   23.6033 C.ar    1  <0>        -0.0568
      7 C7         23.2101   14.8357   25.5767 C.ar    1  <0>        -0.0568
      8 C8         24.0028   13.1180   23.9932 C.ar    1  <0>        -0.0568
      9 C9         29.0776   11.6875   21.5757 C.3     1  <0>        -0.0545
     10 C10        28.1766   12.8730   21.2768 C.3     1  <0>        -0.0376
     11 C11        28.9464   14.1948   21.3003 C.3     1  <0>         0.0130
     12 C12        26.3707   16.1539   23.7826 C.3     1  <0>         0.0383
     13 C13        21.9159   12.6390   25.3941 C.3     1  <0>         0.0502
     14 C14        20.9011   11.3815   20.9518 C.3     1  <0>         0.0041
     15 C15        25.2242   15.2528   24.1986 C.ar    1  <0>        -0.0303
     16 C16        23.0638   13.5480   24.9802 C.ar    1  <0>        -0.0297
     17 C17        21.8073   10.5186   24.0570 C.3     1  <0>         0.0736
     18 C18        20.6185   12.2014   23.3118 C.2     1  <0>         0.2753
     19 C19        22.3798   11.7725   20.9030 C.3     1  <0>        -0.0409
     20 C20        28.5439   15.1648   23.4755 C.2     1  <0>         0.2999
     21 C21        20.4150   11.0198   22.3602 C.3     1  <0>         0.0706
     22 N1         22.6365    9.8567   24.8621 N.4     1  <0>         0.2701
     23 N2         21.2411    9.9823   22.9521 N.4     1  <0>         0.2881
     24 N3         29.3932   14.5152   22.6522 N.am    1  <0>        -0.2994
     25 N4         27.3404   15.4517   22.9366 N.am    1  <0>        -0.2953
     26 N5         21.4569   11.8027   24.2816 N.am    1  <0>        -0.2106
     27 O1         20.0917   13.3091   23.1863 O.2     1  <0>        -0.2687
     28 O2         28.8408   15.4710   24.6303 O.2     1  <0>        -0.2529
     29 H1         29.7260    9.8202   20.7289 H       1  <0>         0.0230
     30 H2         28.0354   10.2783   20.3308 H       1  <0>         0.0230
     31 H3         29.4062   11.1179   19.5289 H       1  <0>         0.0230
     32 H4         21.9444   13.8606   20.5532 H       1  <0>         0.0232
     33 H5         23.6450   13.3867   20.2220 H       1  <0>         0.0232
     34 H6         22.3433   12.9230   19.0741 H       1  <0>         0.0232
     35 H7         23.0720    9.7268   20.9444 H       1  <0>         0.0232
     36 H8         23.0141   10.4632   19.3071 H       1  <0>         0.0232
     37 H9         24.3157   10.9268   20.4550 H       1  <0>         0.0232
     38 H10        18.6388   10.3927   23.4423 H       1  <0>         0.0292
     39 H11        18.3161   11.4878   22.0555 H       1  <0>         0.0292
     40 H12        18.7441    9.7680   21.7615 H       1  <0>         0.0292
     41 H13        24.3981   16.6607   25.6399 H       1  <0>         0.0621
     42 H14        25.7816   13.6343   22.8551 H       1  <0>         0.0621
     43 H15        22.5045   15.1675   26.3239 H       1  <0>         0.0621
     44 H16        23.8968   12.1434   23.5402 H       1  <0>         0.0621
     45 H17        28.7294   11.2090   22.5030 H       1  <0>         0.0263
     46 H18        30.1079   12.0534   21.6965 H       1  <0>         0.0263
     47 H19        27.7379   12.7387   20.2770 H       1  <0>         0.0280
     48 H20        27.3838   12.9136   22.0383 H       1  <0>         0.0280
     49 H21        29.8251   14.1086   20.6443 H       1  <0>         0.0462
     50 H22        28.2872   14.9990   20.9414 H       1  <0>         0.0462
     51 H23        25.9622   17.0048   23.2177 H       1  <0>         0.0512
     52 H24        26.8854   16.5089   24.6876 H       1  <0>         0.0512
     53 H25        22.2598   11.9849   26.2089 H       1  <0>         0.0518
     54 H26        21.0771   13.2631   25.7360 H       1  <0>         0.0518
     55 H27        20.3079   12.2352   20.5921 H       1  <0>         0.0330
     56 H28        20.7556   10.5057   20.3024 H       1  <0>         0.0330
     57 H29        22.4690    9.8321   24.6055 H       1  <0>         0.1733
     58 H30        22.6985   11.9510   21.9406 H       1  <0>         0.0298
     59 H31        22.9256   10.4556   25.6089 H       1  <0>         0.2071
     60 H32        22.1681    9.0573   25.2384 H       1  <0>         0.2071
     61 H33        23.4383    9.5600   24.3435 H       1  <0>         0.2071
     62 H34        21.9463    9.6879   22.3071 H       1  <0>         0.2104
     63 H35        20.6830    9.1893   23.1964 H       1  <0>         0.2104
     64 H36        30.3089   14.2590   22.9617 H       1  <0>         0.1502
     65 H37        27.1185   15.1951   21.9958 H       1  <0>         0.1506
@<TRIPOS>BOND
     1     1     9    1
     2     2    19    1
     3     3    19    1
     4     4    21    1
     5     5     7   ar
     6     5    15   ar
     7     6     8   ar
     8     6    15   ar
     9     7    16   ar
    10     8    16   ar
    11     9    10    1
    12    10    11    1
    13    11    24    1
    14    12    15    1
    15    12    25    1
    16    13    16    1
    17    13    26    1
    18    14    19    1
    19    14    21    1
    20    17    22    1
    21    17    23    1
    22    17    26    1
    23    18    21    1
    24    18    26   am
    25    18    27    2
    26    20    24   am
    27    20    25   am
    28    20    28    2
    29    21    23    1
    30     1    29    1
    31     1    30    1
    32     1    31    1
    33     2    32    1
    34     2    33    1
    35     2    34    1
    36     3    35    1
    37     3    36    1
    38     3    37    1
    39     4    38    1
    40     4    39    1
    41     4    40    1
    42     5    41    1
    43     6    42    1
    44     7    43    1
    45     8    44    1
    46     9    45    1
    47     9    46    1
    48    10    47    1
    49    10    48    1
    50    11    49    1
    51    11    50    1
    52    12    51    1
    53    12    52    1
    54    13    53    1
    55    13    54    1
    56    14    55    1
    57    14    56    1
    58    17    57    1
    59    19    58    1
    60    22    59    1
    61    22    60    1
    62    22    61    1
    63    23    62    1
    64    23    63    1
    65    24    64    1
    66    25    65    1
@<TRIPOS>SUBSTRUCTURE
     1 <0>         1 TEMP              0 ****  ****    0 ROOT

