
##########                                Name:          BDV_1_3L5D
##########                    Molecular_Weight:             391.557
##########                DOCK_Rotatable_Bonds:                  11
##########                       Formal_Charge:              1.9993
##########                     HBond_Acceptors:                   7
##########                        HBond_Donors:                   7
##########                         Heavy_Atoms:                  28
##########                            HA_RMSDs:               0.834
##########                            HA_RMSDh:               0.834
##########                            HA_RMSDm:               0.815
##########                          Grid_Score:         -197.852188
##########                     Grid_vdw_energy:          -39.022228
##########                      Grid_es_energy:         -158.829956
##########           Internal_energy_repulsive:           25.001528

@<TRIPOS>MOLECULE
BDV_1_3L5D
 65 66 1 0 0
SMALL
USER_CHARGES


@<TRIPOS>ATOM
      1 C1         28.3448   11.1663   20.7397 C.3     1  <0>        -0.0652
      2 C2         23.3408   12.6197   20.1867 C.3     1  <0>        -0.0625
      3 C3         23.4347   10.1072   20.4970 C.3     1  <0>        -0.0625
      4 C4         19.0352   10.7349   21.9677 C.3     1  <0>        -0.0098
      5 C5         23.7412   15.7302   25.2516 C.ar    1  <0>        -0.0568
      6 C6         25.0269   13.9873   24.0700 C.ar    1  <0>        -0.0568
      7 C7         22.7120   14.7809   25.5352 C.ar    1  <0>        -0.0568
      8 C8         24.0022   13.0415   24.3539 C.ar    1  <0>        -0.0568
      9 C9         28.8613   12.1822   21.7403 C.3     1  <0>        -0.0545
     10 C10        28.2363   13.5528   21.5470 C.3     1  <0>        -0.0376
     11 C11        29.0923   14.6619   22.1613 C.3     1  <0>         0.0130
     12 C12        25.9943   16.3400   24.2157 C.3     1  <0>         0.0383
     13 C13        21.7457   12.4191   25.3873 C.3     1  <0>         0.0502
     14 C14        21.2435   11.3475   20.8108 C.3     1  <0>         0.0041
     15 C15        24.9002   15.3345   24.5181 C.ar    1  <0>        -0.0303
     16 C16        22.8398   13.4327   25.0863 C.ar    1  <0>        -0.0297
     17 C17        21.6553   10.3449   23.9782 C.3     1  <0>         0.0736
     18 C18        20.7101   12.1342   23.1384 C.2     1  <0>         0.2753
     19 C19        22.7678   11.4118   20.9294 C.3     1  <0>        -0.0409
     20 C20        28.0730   15.1286   24.3009 C.2     1  <0>         0.2999
     21 C21        20.5462   10.9944   22.1298 C.3     1  <0>         0.0706
     22 N1         22.3156    9.6005   24.8636 N.4     1  <0>         0.2701
     23 N2         21.2033    9.8808   22.7911 N.4     1  <0>         0.2881
     24 N3         29.0958   14.5730   23.6180 N.am    1  <0>        -0.2994
     25 N4         27.1343   15.7207   23.5331 N.am    1  <0>        -0.2953
     26 N5         21.3775   11.6476   24.1968 N.am    1  <0>        -0.2106
     27 O1         20.2915   13.2832   22.9811 O.2     1  <0>        -0.2687
     28 O2         27.9984   15.0970   25.5292 O.2     1  <0>        -0.2529
     29 H1         28.8265   10.1941   20.9216 H       1  <0>         0.0230
     30 H2         27.2555   11.0623   20.8521 H       1  <0>         0.0230
     31 H3         28.5777   11.5055   19.7196 H       1  <0>         0.0230
     32 H4         22.8339   13.5345   20.5274 H       1  <0>         0.0232
     33 H5         24.4184   12.6993   20.3927 H       1  <0>         0.0232
     34 H6         23.1824   12.4940   19.1054 H       1  <0>         0.0232
     35 H7         22.9940    9.2673   21.0541 H       1  <0>         0.0232
     36 H8         23.2773    9.9548   19.4191 H       1  <0>         0.0232
     37 H9         24.5133   10.1600   20.7064 H       1  <0>         0.0232
     38 H10        18.5979   10.4882   22.9464 H       1  <0>         0.0292
     39 H11        18.5495   11.6365   21.5661 H       1  <0>         0.0292
     40 H12        18.8798    9.8950   21.2746 H       1  <0>         0.0292
     41 H13        23.6422   16.7500   25.5931 H       1  <0>         0.0621
     42 H14        25.9017   13.6839   23.5142 H       1  <0>         0.0621
     43 H15        21.8363   15.0841   26.0899 H       1  <0>         0.0621
     44 H16        24.1040   12.0216   24.0135 H       1  <0>         0.0621
     45 H17        28.6207   11.8282   22.7536 H       1  <0>         0.0263
     46 H18        29.9503   12.2739   21.6147 H       1  <0>         0.0263
     47 H19        28.1332   13.7440   20.4687 H       1  <0>         0.0280
     48 H20        27.2487   13.5610   22.0314 H       1  <0>         0.0280
     49 H21        30.1245   14.5617   21.7945 H       1  <0>         0.0462
     50 H22        28.6809   15.6377   21.8635 H       1  <0>         0.0462
     51 H23        25.5803   17.1259   23.5670 H       1  <0>         0.0512
     52 H24        26.3452   16.7738   25.1637 H       1  <0>         0.0512
     53 H25        22.1102   11.7250   26.1589 H       1  <0>         0.0518
     54 H26        20.8565   12.9564   25.7487 H       1  <0>         0.0518
     55 H27        20.8823   12.3339   20.4843 H       1  <0>         0.0330
     56 H28        20.9887   10.5753   20.0699 H       1  <0>         0.0330
     57 H29        22.1827    9.5952   24.5864 H       1  <0>         0.1733
     58 H30        23.0008   11.5457   21.9960 H       1  <0>         0.0298
     59 H31        22.5469   10.1572   25.6614 H       1  <0>         0.2071
     60 H32        21.7410    8.8331   25.1481 H       1  <0>         0.2071
     61 H33        23.1547    9.2520   24.4460 H       1  <0>         0.2071
     62 H34        21.9640    9.5452   22.2356 H       1  <0>         0.2104
     63 H35        20.5582    9.1300   22.9332 H       1  <0>         0.2104
     64 H36        29.8401   14.1105   24.0998 H       1  <0>         0.1502
     65 H37        27.2134   15.7365   22.5363 H       1  <0>         0.1506
@<TRIPOS>BOND
     1     1     9    1
     2     2    19    1
     3     3    19    1
     4     4    21    1
     5     5     7   ar
     6     5    15   ar
     7     6     8   ar
     8     6    15   ar
     9     7    16   ar
    10     8    16   ar
    11     9    10    1
    12    10    11    1
    13    11    24    1
    14    12    15    1
    15    12    25    1
    16    13    16    1
    17    13    26    1
    18    14    19    1
    19    14    21    1
    20    17    22    1
    21    17    23    1
    22    17    26    1
    23    18    21    1
    24    18    26   am
    25    18    27    2
    26    20    24   am
    27    20    25   am
    28    20    28    2
    29    21    23    1
    30     1    29    1
    31     1    30    1
    32     1    31    1
    33     2    32    1
    34     2    33    1
    35     2    34    1
    36     3    35    1
    37     3    36    1
    38     3    37    1
    39     4    38    1
    40     4    39    1
    41     4    40    1
    42     5    41    1
    43     6    42    1
    44     7    43    1
    45     8    44    1
    46     9    45    1
    47     9    46    1
    48    10    47    1
    49    10    48    1
    50    11    49    1
    51    11    50    1
    52    12    51    1
    53    12    52    1
    54    13    53    1
    55    13    54    1
    56    14    55    1
    57    14    56    1
    58    17    57    1
    59    19    58    1
    60    22    59    1
    61    22    60    1
    62    22    61    1
    63    23    62    1
    64    23    63    1
    65    24    64    1
    66    25    65    1
@<TRIPOS>SUBSTRUCTURE
     1 <0>         1 TEMP              0 ****  ****    0 ROOT

