
##########                                Name:          BDV_1_3L5D
##########                    Molecular_Weight:             391.557
##########                DOCK_Rotatable_Bonds:                  11
##########                       Formal_Charge:              1.9993
##########                     HBond_Acceptors:                   7
##########                        HBond_Donors:                   7
##########                         Heavy_Atoms:                  28
##########                            HA_RMSDs:               0.933
##########                            HA_RMSDh:               0.933
##########                            HA_RMSDm:               0.913
##########                          Grid_Score:         -200.814209
##########                     Grid_vdw_energy:          -38.460060
##########                      Grid_es_energy:         -162.354156
##########           Internal_energy_repulsive:           29.666698

@<TRIPOS>MOLECULE
BDV_1_3L5D
 65 66 1 0 0
SMALL
USER_CHARGES


@<TRIPOS>ATOM
      1 C1         29.1822   11.0393   20.8290 C.3     1  <0>        -0.0652
      2 C2         22.4168   12.2155   19.5144 C.3     1  <0>        -0.0625
      3 C3         23.3770   10.3316   20.9096 C.3     1  <0>        -0.0625
      4 C4         18.7956   10.5750   22.3790 C.3     1  <0>        -0.0098
      5 C5         23.7920   15.8679   24.1733 C.ar    1  <0>        -0.0568
      6 C6         24.7988   14.0609   22.8286 C.ar    1  <0>        -0.0568
      7 C7         22.9206   14.9218   24.7950 C.ar    1  <0>        -0.0568
      8 C8         23.9318   13.1184   23.4491 C.ar    1  <0>        -0.0568
      9 C9         29.2732   12.2811   21.6949 C.3     1  <0>        -0.0545
     10 C10        28.5776   13.4759   21.0662 C.3     1  <0>        -0.0376
     11 C11        29.2374   14.7964   21.4677 C.3     1  <0>         0.0130
     12 C12        25.6585   16.4405   22.5272 C.3     1  <0>         0.0383
     13 C13        22.0619   12.5329   25.0947 C.3     1  <0>         0.0502
     14 C14        20.8741   10.7472   20.8821 C.3     1  <0>         0.0041
     15 C15        24.7323   15.4385   23.1887 C.ar    1  <0>        -0.0303
     16 C16        22.9881   13.5432   24.4339 C.ar    1  <0>        -0.0297
     17 C17        21.6180   10.2678   24.1108 C.3     1  <0>         0.0736
     18 C18        20.7186   11.9739   23.0713 C.2     1  <0>         0.2753
     19 C19        22.2668   11.3732   20.7821 C.3     1  <0>        -0.0409
     20 C20        27.8165   15.6378   23.2305 C.2     1  <0>         0.2999
     21 C21        20.3309   10.7007   22.3151 C.3     1  <0>         0.0706
     22 N1         22.3269    9.6226   25.0356 N.4     1  <0>         0.2701
     23 N2         20.9769    9.6556   23.0895 N.4     1  <0>         0.2881
     24 N3         28.9990   15.0924   22.8767 N.am    1  <0>        -0.2994
     25 N4         26.9630   15.8530   22.2075 N.am    1  <0>        -0.2953
     26 N5         21.4782   11.6103   24.1169 N.am    1  <0>        -0.2106
     27 O1         20.3775   13.1158   22.7549 O.2     1  <0>        -0.2687
     28 O2         27.5346   15.9164   24.3960 O.2     1  <0>        -0.2529
     29 H1         29.6993   10.2058   21.3270 H       1  <0>         0.0230
     30 H2         28.1253   10.7758   20.6759 H       1  <0>         0.0230
     31 H3         29.6560   11.2355   19.8558 H       1  <0>         0.0230
     32 H4         21.5996   12.9500   19.4628 H       1  <0>         0.0232
     33 H5         23.3822   12.7424   19.5365 H       1  <0>         0.0232
     34 H6         22.3768   11.5601   18.6320 H       1  <0>         0.0232
     35 H7         23.2309    9.7502   21.8319 H       1  <0>         0.0232
     36 H8         23.3472    9.6561   20.0420 H       1  <0>         0.0232
     37 H9         24.3526   10.8384   20.9466 H       1  <0>         0.0232
     38 H10        18.4729   10.5471   23.4302 H       1  <0>         0.0292
     39 H11        18.3359   11.4394   21.8773 H       1  <0>         0.0292
     40 H12        18.4823    9.6489   21.8747 H       1  <0>         0.0292
     41 H13        23.7393   16.9108   24.4489 H       1  <0>         0.0621
     42 H14        25.5083   13.7320   22.0837 H       1  <0>         0.0621
     43 H15        22.2101   15.2504   25.5391 H       1  <0>         0.0621
     44 H16        23.9875   12.0756   23.1738 H       1  <0>         0.0621
     45 H17        28.7956   12.0681   22.6626 H       1  <0>         0.0263
     46 H18        30.3350   12.5304   21.8378 H       1  <0>         0.0263
     47 H19        28.6265   13.3763   19.9718 H       1  <0>         0.0280
     48 H20        27.5298   13.4897   21.4009 H       1  <0>         0.0280
     49 H21        30.3214   14.7211   21.2965 H       1  <0>         0.0462
     50 H22        28.8160   15.6074   20.8556 H       1  <0>         0.0462
     51 H23        25.1914   16.7889   21.5943 H       1  <0>         0.0512
     52 H24        25.8122   17.2851   23.2151 H       1  <0>         0.0512
     53 H25        22.6398   11.9510   25.8278 H       1  <0>         0.0518
     54 H26        21.2480   13.0762   25.5970 H       1  <0>         0.0518
     55 H27        20.1830   11.3473   20.2719 H       1  <0>         0.0330
     56 H28        20.9326    9.7162   20.5031 H       1  <0>         0.0330
     57 H29        22.1586    9.5835   24.7814 H       1  <0>         0.1733
     58 H30        22.3744   12.0541   21.6393 H       1  <0>         0.0298
     59 H31        22.7060   10.2814   25.6854 H       1  <0>         0.2071
     60 H32        21.7345    8.9793   25.5207 H       1  <0>         0.2071
     61 H33        23.0724    9.1225   24.5951 H       1  <0>         0.2071
     62 H34        21.6278    9.1524   22.5210 H       1  <0>         0.2104
     63 H35        20.2975    9.0113   23.4406 H       1  <0>         0.2104
     64 H36        29.6969   14.8953   23.5653 H       1  <0>         0.1502
     65 H37        27.2110   15.6204   21.2670 H       1  <0>         0.1506
@<TRIPOS>BOND
     1     1     9    1
     2     2    19    1
     3     3    19    1
     4     4    21    1
     5     5     7   ar
     6     5    15   ar
     7     6     8   ar
     8     6    15   ar
     9     7    16   ar
    10     8    16   ar
    11     9    10    1
    12    10    11    1
    13    11    24    1
    14    12    15    1
    15    12    25    1
    16    13    16    1
    17    13    26    1
    18    14    19    1
    19    14    21    1
    20    17    22    1
    21    17    23    1
    22    17    26    1
    23    18    21    1
    24    18    26   am
    25    18    27    2
    26    20    24   am
    27    20    25   am
    28    20    28    2
    29    21    23    1
    30     1    29    1
    31     1    30    1
    32     1    31    1
    33     2    32    1
    34     2    33    1
    35     2    34    1
    36     3    35    1
    37     3    36    1
    38     3    37    1
    39     4    38    1
    40     4    39    1
    41     4    40    1
    42     5    41    1
    43     6    42    1
    44     7    43    1
    45     8    44    1
    46     9    45    1
    47     9    46    1
    48    10    47    1
    49    10    48    1
    50    11    49    1
    51    11    50    1
    52    12    51    1
    53    12    52    1
    54    13    53    1
    55    13    54    1
    56    14    55    1
    57    14    56    1
    58    17    57    1
    59    19    58    1
    60    22    59    1
    61    22    60    1
    62    22    61    1
    63    23    62    1
    64    23    63    1
    65    24    64    1
    66    25    65    1
@<TRIPOS>SUBSTRUCTURE
     1 <0>         1 TEMP              0 ****  ****    0 ROOT

