
##########                                Name:          BDV_1_3L5D
##########                    Molecular_Weight:             391.557
##########                DOCK_Rotatable_Bonds:                  11
##########                       Formal_Charge:              1.9993
##########                     HBond_Acceptors:                   7
##########                        HBond_Donors:                   7
##########                         Heavy_Atoms:                  28
##########                            HA_RMSDs:               2.825
##########                            HA_RMSDh:               2.742
##########                            HA_RMSDm:               2.112
##########                          Grid_Score:         -194.089249
##########                     Grid_vdw_energy:          -32.839794
##########                      Grid_es_energy:         -161.249451
##########           Internal_energy_repulsive:           27.294825

@<TRIPOS>MOLECULE
BDV_1_3L5D
 65 66 1 0 0
SMALL
USER_CHARGES


@<TRIPOS>ATOM
      1 C1         28.3623   14.0454   22.4740 C.3     1  <0>        -0.0652
      2 C2         23.8070   13.4854   21.1436 C.3     1  <0>        -0.0625
      3 C3         25.0817   11.4089   20.4502 C.3     1  <0>        -0.0625
      4 C4         20.4033   10.0266   20.6324 C.3     1  <0>        -0.0098
      5 C5         21.4670   15.5799   25.5938 C.ar    1  <0>        -0.0568
      6 C6         23.6026   14.7723   24.6591 C.ar    1  <0>        -0.0568
      7 C7         20.9276   14.2599   25.5059 C.ar    1  <0>        -0.0568
      8 C8         23.0657   13.4573   24.5730 C.ar    1  <0>        -0.0568
      9 C9         27.8217   15.0008   23.5204 C.3     1  <0>        -0.0545
     10 C10        27.2388   16.2613   22.9057 C.3     1  <0>        -0.0376
     11 C11        27.2202   17.4245   23.8991 C.3     1  <0>         0.0130
     12 C12        23.3808   17.2379   25.2623 C.3     1  <0>         0.0383
     13 C13        21.1550   11.7871   24.9000 C.3     1  <0>         0.0502
     14 C14        22.5450   11.4224   20.3967 C.3     1  <0>         0.0041
     15 C15        22.8056   15.8378   25.1700 C.ar    1  <0>        -0.0303
     16 C16        21.7263   13.1942   24.9944 C.ar    1  <0>        -0.0297
     17 C17        22.2029   10.0454   23.4290 C.3     1  <0>         0.0736
     18 C18        21.0590   11.6153   22.4156 C.2     1  <0>         0.2753
     19 C19        23.8039   11.9573   21.0828 C.3     1  <0>        -0.0409
     20 C20        25.7192   16.8854   25.7132 C.2     1  <0>         0.2999
     21 C21        21.6097   10.6667   21.3480 C.3     1  <0>         0.0706
     22 N1         22.7417    9.3747   24.4458 N.4     1  <0>         0.2701
     23 N2         22.3376    9.6849   22.1325 N.4     1  <0>         0.2881
     24 N3         26.9882   16.9469   25.2585 N.am    1  <0>        -0.2994
     25 N4         24.7807   17.2849   24.8295 N.am    1  <0>        -0.2953
     26 N5         21.4645   11.1603   23.6119 N.am    1  <0>        -0.2106
     27 O1         20.3674   12.6105   22.1884 O.2     1  <0>        -0.2687
     28 O2         25.4365   16.4933   26.8454 O.2     1  <0>        -0.2529
     29 H1         28.7715   13.1522   22.9687 H       1  <0>         0.0230
     30 H2         27.5499   13.7482   21.7945 H       1  <0>         0.0230
     31 H3         29.1576   14.5429   21.8994 H       1  <0>         0.0230
     32 H4         22.8719   13.8364   21.6044 H       1  <0>         0.0232
     33 H5         24.6625   13.8266   21.7450 H       1  <0>         0.0232
     34 H6         23.8889   13.8926   20.1251 H       1  <0>         0.0232
     35 H7         25.0374   10.3100   20.4266 H       1  <0>         0.0232
     36 H8         25.1773   11.7940   19.4243 H       1  <0>         0.0232
     37 H9         25.9508   11.7280   21.0442 H       1  <0>         0.0232
     38 H10        19.7756    9.5026   21.3682 H       1  <0>         0.0292
     39 H11        19.8115   10.8114   20.1384 H       1  <0>         0.0292
     40 H12        20.7621    9.3091   19.8797 H       1  <0>         0.0292
     41 H13        20.8605   16.3848   25.9819 H       1  <0>         0.0621
     42 H14        24.6156   14.9632   24.3368 H       1  <0>         0.0621
     43 H15        19.9143   14.0687   25.8269 H       1  <0>         0.0621
     44 H16        23.6744   12.6532   24.1866 H       1  <0>         0.0621
     45 H17        27.0288   14.4885   24.0850 H       1  <0>         0.0263
     46 H18        28.6455   15.2876   24.1905 H       1  <0>         0.0263
     47 H19        27.8537   16.5477   22.0397 H       1  <0>         0.0280
     48 H20        26.2065   16.0532   22.5878 H       1  <0>         0.0280
     49 H21        28.1903   17.9417   23.8624 H       1  <0>         0.0462
     50 H22        26.4136   18.1191   23.6216 H       1  <0>         0.0462
     51 H23        22.7902   17.9041   24.6163 H       1  <0>         0.0512
     52 H24        23.3245   17.5731   26.3086 H       1  <0>         0.0512
     53 H25        21.5898   11.1749   25.7039 H       1  <0>         0.0518
     54 H26        20.0621   11.8416   25.0126 H       1  <0>         0.0518
     55 H27        21.9925   12.2765   19.9781 H       1  <0>         0.0330
     56 H28        22.8554   10.7314   19.5991 H       1  <0>         0.0330
     57 H29        22.7155    9.3803   24.1395 H       1  <0>         0.1733
     58 H30        23.7839   11.5909   22.1198 H       1  <0>         0.0298
     59 H31        22.5077    9.8279   25.3059 H       1  <0>         0.2071
     60 H32        22.3860    8.4401   24.4541 H       1  <0>         0.2071
     61 H33        23.7358    9.3523   24.3407 H       1  <0>         0.2071
     62 H34        23.3029    9.6765   21.8715 H       1  <0>         0.2104
     63 H35        21.9604    8.7708   21.9839 H       1  <0>         0.2104
     64 H36        27.7532   16.6712   25.8406 H       1  <0>         0.1502
     65 H37        25.0306   17.6010   23.9143 H       1  <0>         0.1506
@<TRIPOS>BOND
     1     1     9    1
     2     2    19    1
     3     3    19    1
     4     4    21    1
     5     5     7   ar
     6     5    15   ar
     7     6     8   ar
     8     6    15   ar
     9     7    16   ar
    10     8    16   ar
    11     9    10    1
    12    10    11    1
    13    11    24    1
    14    12    15    1
    15    12    25    1
    16    13    16    1
    17    13    26    1
    18    14    19    1
    19    14    21    1
    20    17    22    1
    21    17    23    1
    22    17    26    1
    23    18    21    1
    24    18    26   am
    25    18    27    2
    26    20    24   am
    27    20    25   am
    28    20    28    2
    29    21    23    1
    30     1    29    1
    31     1    30    1
    32     1    31    1
    33     2    32    1
    34     2    33    1
    35     2    34    1
    36     3    35    1
    37     3    36    1
    38     3    37    1
    39     4    38    1
    40     4    39    1
    41     4    40    1
    42     5    41    1
    43     6    42    1
    44     7    43    1
    45     8    44    1
    46     9    45    1
    47     9    46    1
    48    10    47    1
    49    10    48    1
    50    11    49    1
    51    11    50    1
    52    12    51    1
    53    12    52    1
    54    13    53    1
    55    13    54    1
    56    14    55    1
    57    14    56    1
    58    17    57    1
    59    19    58    1
    60    22    59    1
    61    22    60    1
    62    22    61    1
    63    23    62    1
    64    23    63    1
    65    24    64    1
    66    25    65    1
@<TRIPOS>SUBSTRUCTURE
     1 <0>         1 TEMP              0 ****  ****    0 ROOT

