
##########                                Name:          G93_1_3D0E
##########                    Molecular_Weight:             426.499
##########                DOCK_Rotatable_Bonds:                   8
##########                       Formal_Charge:              1.0001
##########                     HBond_Acceptors:                  10
##########                        HBond_Donors:                   5
##########                         Heavy_Atoms:                  31
##########                            HA_RMSDs:               0.248
##########                            HA_RMSDh:               0.248
##########                            HA_RMSDm:               0.248
##########                          Grid_Score:         -130.875336
##########                     Grid_vdw_energy:          -56.693451
##########                      Grid_es_energy:          -74.181877
##########           Internal_energy_repulsive:           20.909891

@<TRIPOS>MOLECULE
G93_1_3D0E
 59 62 1 0 0
SMALL
USER_CHARGES


@<TRIPOS>ATOM
      1 C1         22.9860  -20.0181   11.5247 C.3     1  <0>        -0.0489
      2 C2         25.3440  -14.8524    3.4062 C.3     1  <0>        -0.0249
      3 C3         22.9182  -14.2605    3.6144 C.3     1  <0>        -0.0249
      4 C4         22.8160  -20.2876    6.6373 C.ar    1  <0>         0.0609
      5 C5         22.2340  -24.7545   11.2963 C.3     1  <0>        -0.0121
      6 C6         22.5966  -23.6196   10.3483 C.3     1  <0>        -0.0384
      7 C7         20.8421  -24.5403   11.8882 C.3     1  <0>        -0.0337
      8 C8         20.2113  -23.2272    9.7909 C.3     1  <0>        -0.0286
      9 C9         21.8614  -19.2008   10.9345 C.3     1  <0>         0.0160
     10 C10        22.0014  -22.5281    8.1741 C.3     1  <0>         0.0620
     11 C11        23.5077  -17.0375    5.5245 C.1     1  <0>        -0.0414
     12 C12        23.8034  -16.3186    4.6137 C.1     1  <0>        -0.0614
     13 C13        22.4953  -20.1250    7.9894 C.ar    1  <0>         0.1177
     14 C14        23.2034  -17.9801    6.3503 C.ar    1  <0>         0.1408
     15 C15        22.8873  -17.7424    7.6914 C.ar    1  <0>         0.1236
     16 C16        22.5394  -18.8246    8.5099 C.ar    1  <0>         0.0954
     17 C17        22.3488  -16.0904   10.8210 C.2     1  <0>         0.1750
     18 C18        22.3282  -14.7109   10.6485 C.2     1  <0>         0.1773
     19 C19        22.4803  -17.0692    9.6824 C.2     1  <0>         0.1578
     20 C20        21.5812  -23.5606    9.2153 C.3     1  <0>         0.0232
     21 C21        23.9230  -15.3976    3.4617 C.3     1  <0>         0.1212
     22 N1         22.3823  -14.0951    9.4311 N.pl3   1  <0>        -0.3395
     23 N2         23.1482  -19.2406    5.8702 N.ar    1  <0>        -0.2419
     24 N3         22.8507  -16.6327    8.4566 N.2     1  <0>        -0.2252
     25 N4         22.3039  -16.4253   12.1325 N.2     1  <0>        -0.0977
     26 N5         22.2187  -14.0358   11.8046 N.2     1  <0>        -0.0872
     27 N6         19.8667  -24.1046   10.9036 N.4     1  <0>         0.2272
     28 N7         22.2822  -18.4026    9.7670 N.pl3   1  <0>        -0.2797
     29 O1         23.6739  -16.1046    2.2431 O.3     1  <0>        -0.3771
     30 O2         22.2076  -15.1203   12.7486 O.3     1  <0>        -0.1041
     31 O3         22.1505  -21.2214    8.7498 O.3     1  <0>        -0.3408
     32 H1         22.6117  -20.5884   12.3876 H       1  <0>         0.0245
     33 H2         23.3714  -20.7137   10.7648 H       1  <0>         0.0245
     34 H3         23.7941  -19.3472   11.8515 H       1  <0>         0.0245
     35 H4         26.0531  -15.6861    3.2961 H       1  <0>         0.0267
     36 H5         25.4422  -14.1720    2.5476 H       1  <0>         0.0267
     37 H6         25.5631  -14.3051    4.3349 H       1  <0>         0.0267
     38 H7         21.8994  -14.6734    3.6526 H       1  <0>         0.0267
     39 H8         23.1258  -13.7104    4.5441 H       1  <0>         0.0267
     40 H9         23.0047  -13.5772    2.7568 H       1  <0>         0.0267
     41 H10        22.7954  -21.2764    6.2036 H       1  <0>         0.0857
     42 H11        22.2460  -25.7039   10.7411 H       1  <0>         0.0317
     43 H12        22.9702  -24.7893   12.1130 H       1  <0>         0.0317
     44 H13        22.5889  -22.6665   10.8974 H       1  <0>         0.0272
     45 H14        23.5998  -23.7953    9.9328 H       1  <0>         0.0272
     46 H15        20.4985  -25.4934   12.3166 H       1  <0>         0.0814
     47 H16        20.9137  -23.7683   12.6686 H       1  <0>         0.0814
     48 H17        20.2226  -22.1878   10.1507 H       1  <0>         0.0817
     49 H18        19.4567  -23.3468    8.9996 H       1  <0>         0.0817
     50 H19        21.0648  -19.8886   10.6145 H       1  <0>         0.0465
     51 H20        21.4904  -18.5128   11.7086 H       1  <0>         0.0465
     52 H21        22.9650  -22.8352    7.7414 H       1  <0>         0.0570
     53 H22        21.2303  -22.4827    7.3909 H       1  <0>         0.0570
     54 H23        21.5324  -24.5385    8.7139 H       1  <0>         0.0375
     55 H24        22.2602  -13.1097    9.5497 H       1  <0>         0.1438
     56 H25        23.2705  -14.2723    9.0072 H       1  <0>         0.1438
     57 H26        19.5245  -24.9442   10.4816 H       1  <0>         0.2013
     58 H27        19.1696  -23.6106   11.4233 H       1  <0>         0.2013
     59 H28        22.7931  -16.4605    2.2573 H       1  <0>         0.2114
@<TRIPOS>BOND
     1     1     9    1
     2     2    21    1
     3     3    21    1
     4     4    13   ar
     5     4    23   ar
     6     5     6    1
     7     5     7    1
     8     6    20    1
     9     7    27    1
    10     8    20    1
    11     8    27    1
    12     9    28    1
    13    10    20    1
    14    10    31    1
    15    11    12    3
    16    11    14    1
    17    12    21    1
    18    13    16   ar
    19    13    31    1
    20    14    15   ar
    21    14    23   ar
    22    15    16   ar
    23    15    24    1
    24    16    28    1
    25    17    18    1
    26    17    19    1
    27    17    25    2
    28    18    22    1
    29    18    26    2
    30    19    24    2
    31    19    28    1
    32    21    29    1
    33    25    30    1
    34    26    30    1
    35     1    32    1
    36     1    33    1
    37     1    34    1
    38     2    35    1
    39     2    36    1
    40     2    37    1
    41     3    38    1
    42     3    39    1
    43     3    40    1
    44     4    41    1
    45     5    42    1
    46     5    43    1
    47     6    44    1
    48     6    45    1
    49     7    46    1
    50     7    47    1
    51     8    48    1
    52     8    49    1
    53     9    50    1
    54     9    51    1
    55    10    52    1
    56    10    53    1
    57    20    54    1
    58    22    55    1
    59    22    56    1
    60    27    57    1
    61    27    58    1
    62    29    59    1
@<TRIPOS>SUBSTRUCTURE
     1 <0>         1 TEMP              0 ****  ****    0 ROOT

