
##########                                Name:          G93_1_3D0E
##########                    Molecular_Weight:             426.499
##########                DOCK_Rotatable_Bonds:                   8
##########                       Formal_Charge:              1.0001
##########                     HBond_Acceptors:                  10
##########                        HBond_Donors:                   5
##########                         Heavy_Atoms:                  31
##########                            HA_RMSDs:               0.295
##########                            HA_RMSDh:               0.295
##########                            HA_RMSDm:               0.295
##########                          Grid_Score:         -134.357285
##########                     Grid_vdw_energy:          -60.361259
##########                      Grid_es_energy:          -73.996025
##########           Internal_energy_repulsive:           18.840942

@<TRIPOS>MOLECULE
G93_1_3D0E
 59 62 1 0 0
SMALL
USER_CHARGES


@<TRIPOS>ATOM
      1 C1         23.0041  -20.3196   11.5463 C.3     1  <0>        -0.0489
      2 C2         25.2457  -15.1568    3.3531 C.3     1  <0>        -0.0249
      3 C3         22.9856  -14.2301    3.9112 C.3     1  <0>        -0.0249
      4 C4         22.6336  -20.4429    6.6508 C.ar    1  <0>         0.0609
      5 C5         21.9690  -25.2943   10.9321 C.3     1  <0>        -0.0121
      6 C6         22.4099  -24.1583   10.0193 C.3     1  <0>        -0.0384
      7 C7         20.8331  -24.8419   11.8478 C.3     1  <0>        -0.0337
      8 C8         20.1459  -23.1451   10.0675 C.3     1  <0>        -0.0286
      9 C9         21.8795  -19.4639   11.0133 C.3     1  <0>         0.0160
     10 C10        21.6831  -22.6728    8.1383 C.3     1  <0>         0.0620
     11 C11        23.3885  -17.1825    5.6117 C.1     1  <0>        -0.0414
     12 C12        23.6726  -16.4446    4.7124 C.1     1  <0>        -0.0614
     13 C13        22.3702  -20.3134    8.0187 C.ar    1  <0>         0.1177
     14 C14        23.0851  -18.1408    6.4195 C.ar    1  <0>         0.1408
     15 C15        22.8283  -17.9361    7.7786 C.ar    1  <0>         0.1236
     16 C16        22.4766  -19.0322    8.5766 C.ar    1  <0>         0.0954
     17 C17        22.4638  -16.3684   10.9759 C.2     1  <0>         0.1750
     18 C18        22.4595  -14.9841   10.8456 C.2     1  <0>         0.1773
     19 C19        22.5198  -17.3141    9.8036 C.2     1  <0>         0.1578
     20 C20        21.2336  -23.7094    9.1631 C.3     1  <0>         0.0232
     21 C21        23.7783  -15.4916    3.5854 C.3     1  <0>         0.1212
     22 N1         22.4629  -14.3325    9.6457 N.pl3   1  <0>        -0.3395
     23 N2         22.9705  -19.3831    5.9036 N.ar    1  <0>        -0.2419
     24 N3         22.8573  -16.8507    8.5782 N.2     1  <0>        -0.2252
     25 N4         22.4794  -16.7423   12.2775 N.2     1  <0>        -0.0977
     26 N5         22.4209  -14.3428   12.0252 N.2     1  <0>        -0.0872
     27 N6         19.8226  -24.0599   11.1562 N.4     1  <0>         0.2272
     28 N7         22.2815  -18.6426    9.8551 N.pl3   1  <0>        -0.2797
     29 O1         23.2678  -16.0900    2.3902 O.3     1  <0>        -0.3771
     30 O2         22.4380  -15.4552   12.9360 O.3     1  <0>        -0.1041
     31 O3         22.0189  -21.4221    8.7581 O.3     1  <0>        -0.3408
     32 H1         22.6443  -20.9058   12.4047 H       1  <0>         0.0245
     33 H2         23.3516  -21.0018   10.7565 H       1  <0>         0.0245
     34 H3         23.8357  -19.6744   11.8659 H       1  <0>         0.0245
     35 H4         25.8000  -16.0778    3.1198 H       1  <0>         0.0267
     36 H5         25.3324  -14.4537    2.5116 H       1  <0>         0.0267
     37 H6         25.6646  -14.6966    4.2602 H       1  <0>         0.0267
     38 H7         21.9300  -14.4919    4.0754 H       1  <0>         0.0267
     39 H8         23.3938  -13.7656    4.8210 H       1  <0>         0.0267
     40 H9         23.0615  -13.5226    3.0724 H       1  <0>         0.0267
     41 H10        22.5641  -21.4163    6.1881 H       1  <0>         0.0857
     42 H11        21.6198  -26.1356   10.3156 H       1  <0>         0.0317
     43 H12        22.8229  -25.6115   11.5489 H       1  <0>         0.0317
     44 H13        22.7627  -23.3137   10.6292 H       1  <0>         0.0272
     45 H14        23.2253  -24.5064    9.3683 H       1  <0>         0.0272
     46 H15        20.3501  -25.7368   12.2672 H       1  <0>         0.0814
     47 H16        21.2614  -24.2216   12.6489 H       1  <0>         0.0814
     48 H17        20.5000  -22.1962   10.4964 H       1  <0>         0.0817
     49 H18        19.2398  -22.9757    9.4672 H       1  <0>         0.0817
     50 H19        21.0594  -20.1265   10.6996 H       1  <0>         0.0465
     51 H20        21.5467  -18.7901   11.8165 H       1  <0>         0.0465
     52 H21        22.5708  -23.0565    7.6142 H       1  <0>         0.0570
     53 H22        20.8635  -22.5039    7.4244 H       1  <0>         0.0570
     54 H23        20.8308  -24.5711    8.6106 H       1  <0>         0.0375
     55 H24        22.3967  -13.3469    9.8009 H       1  <0>         0.1438
     56 H25        23.3117  -14.5368    9.1581 H       1  <0>         0.1438
     57 H26        19.1952  -24.7305   10.7602 H       1  <0>         0.2013
     58 H27        19.3999  -23.4914   11.8620 H       1  <0>         0.2013
     59 H28        22.3219  -16.1570    2.4482 H       1  <0>         0.2114
@<TRIPOS>BOND
     1     1     9    1
     2     2    21    1
     3     3    21    1
     4     4    13   ar
     5     4    23   ar
     6     5     6    1
     7     5     7    1
     8     6    20    1
     9     7    27    1
    10     8    20    1
    11     8    27    1
    12     9    28    1
    13    10    20    1
    14    10    31    1
    15    11    12    3
    16    11    14    1
    17    12    21    1
    18    13    16   ar
    19    13    31    1
    20    14    15   ar
    21    14    23   ar
    22    15    16   ar
    23    15    24    1
    24    16    28    1
    25    17    18    1
    26    17    19    1
    27    17    25    2
    28    18    22    1
    29    18    26    2
    30    19    24    2
    31    19    28    1
    32    21    29    1
    33    25    30    1
    34    26    30    1
    35     1    32    1
    36     1    33    1
    37     1    34    1
    38     2    35    1
    39     2    36    1
    40     2    37    1
    41     3    38    1
    42     3    39    1
    43     3    40    1
    44     4    41    1
    45     5    42    1
    46     5    43    1
    47     6    44    1
    48     6    45    1
    49     7    46    1
    50     7    47    1
    51     8    48    1
    52     8    49    1
    53     9    50    1
    54     9    51    1
    55    10    52    1
    56    10    53    1
    57    20    54    1
    58    22    55    1
    59    22    56    1
    60    27    57    1
    61    27    58    1
    62    29    59    1
@<TRIPOS>SUBSTRUCTURE
     1 <0>         1 TEMP              0 ****  ****    0 ROOT

