
##########                                Name:          G93_1_3D0E
##########                    Molecular_Weight:             426.499
##########                DOCK_Rotatable_Bonds:                   8
##########                       Formal_Charge:              1.0001
##########                     HBond_Acceptors:                  10
##########                        HBond_Donors:                   5
##########                         Heavy_Atoms:                  31
##########                            HA_RMSDs:               0.277
##########                            HA_RMSDh:               0.277
##########                            HA_RMSDm:               0.277
##########                          Grid_Score:         -134.693100
##########                     Grid_vdw_energy:          -61.156788
##########                      Grid_es_energy:          -73.536316
##########           Internal_energy_repulsive:           18.745432

@<TRIPOS>MOLECULE
G93_1_3D0E
 59 62 1 0 0
SMALL
USER_CHARGES


@<TRIPOS>ATOM
      1 C1         22.9554  -19.9491   11.7413 C.3     1  <0>        -0.0489
      2 C2         25.3107  -15.3493    3.2007 C.3     1  <0>        -0.0249
      3 C3         23.1840  -14.2032    3.8652 C.3     1  <0>        -0.0249
      4 C4         22.7173  -20.3842    6.7771 C.ar    1  <0>         0.0609
      5 C5         22.2475  -24.7348   11.5061 C.3     1  <0>        -0.0121
      6 C6         22.5379  -23.6029   10.5301 C.3     1  <0>        -0.0384
      7 C7         20.8529  -24.5826   12.1106 C.3     1  <0>        -0.0337
      8 C8         20.1288  -23.3508    9.9942 C.3     1  <0>        -0.0286
      9 C9         21.8049  -19.2389   11.0683 C.3     1  <0>         0.0160
     10 C10        21.8604  -22.5921    8.3409 C.3     1  <0>         0.0620
     11 C11        23.4255  -17.1531    5.6202 C.1     1  <0>        -0.0414
     12 C12        23.7196  -16.4474    4.6986 C.1     1  <0>        -0.0614
     13 C13        22.4085  -20.2030    8.1296 C.ar    1  <0>         0.1177
     14 C14        23.1204  -18.0833    6.4595 C.ar    1  <0>         0.1408
     15 C15        22.8166  -17.8273    7.8001 C.ar    1  <0>         0.1236
     16 C16        22.4668  -18.8969    8.6341 C.ar    1  <0>         0.0954
     17 C17        22.3156  -16.1340   10.9138 C.2     1  <0>         0.1750
     18 C18        22.2944  -14.7567   10.7242 C.2     1  <0>         0.1773
     19 C19        22.4305  -17.1272    9.7860 C.2     1  <0>         0.1578
     20 C20        21.5081  -23.6229    9.4088 C.3     1  <0>         0.0232
     21 C21        23.8373  -15.5411    3.5348 C.3     1  <0>         0.1212
     22 N1         22.3328  -14.1564    9.4985 N.pl3   1  <0>        -0.3395
     23 N2         23.0516  -19.3490    5.9950 N.ar    1  <0>        -0.2419
     24 N3         22.7947  -16.7083    8.5522 N.2     1  <0>        -0.2252
     25 N4         22.2879  -16.4523   12.2299 N.2     1  <0>        -0.0977
     26 N5         22.2012  -14.0669   11.8731 N.2     1  <0>        -0.0872
     27 N6         19.8444  -24.2211   11.1293 N.4     1  <0>         0.2272
     28 N7         22.2228  -18.4580    9.8881 N.pl3   1  <0>        -0.2797
     29 O1         23.1988  -16.1243    2.3950 O.3     1  <0>        -0.3771
     30 O2         22.2015  -15.1395   12.8307 O.3     1  <0>        -0.1041
     31 O3         22.0611  -21.2876    8.9057 O.3     1  <0>        -0.3408
     32 H1         22.5822  -20.5114   12.6099 H       1  <0>         0.0245
     33 H2         23.4243  -20.6438   11.0289 H       1  <0>         0.0245
     34 H3         23.6979  -19.2093   12.0751 H       1  <0>         0.0245
     35 H4         25.7638  -16.3237    2.9657 H       1  <0>         0.0267
     36 H5         25.4056  -14.6818    2.3316 H       1  <0>         0.0267
     37 H6         25.8272  -14.9036    4.0637 H       1  <0>         0.0267
     38 H7         22.1219  -14.3621    4.1033 H       1  <0>         0.0267
     39 H8         23.6903  -13.7520    4.7313 H       1  <0>         0.0267
     40 H9         23.2686  -13.5302    2.9992 H       1  <0>         0.0267
     41 H10        22.6856  -21.3779    6.3554 H       1  <0>         0.0857
     42 H11        22.3042  -25.6941   10.9709 H       1  <0>         0.0317
     43 H12        22.9936  -24.7125   12.3142 H       1  <0>         0.0317
     44 H13        22.4852  -22.6400   11.0591 H       1  <0>         0.0272
     45 H14        23.5443  -23.7337   10.1059 H       1  <0>         0.0272
     46 H15        20.5658  -25.5432   12.5632 H       1  <0>         0.0814
     47 H16        20.8917  -23.7912   12.8737 H       1  <0>         0.0814
     48 H17        20.0883  -22.3047   10.3320 H       1  <0>         0.0817
     49 H18        19.3729  -23.5277    9.2149 H       1  <0>         0.0817
     50 H19        21.0749  -19.9945   10.7425 H       1  <0>         0.0465
     51 H20        21.3502  -18.5502   11.7957 H       1  <0>         0.0465
     52 H21        22.7879  -22.9062    7.8397 H       1  <0>         0.0570
     53 H22        21.0353  -22.5394    7.6155 H       1  <0>         0.0570
     54 H23        21.5062  -24.6126    8.9287 H       1  <0>         0.0375
     55 H24        22.1637  -13.1763    9.6014 H       1  <0>         0.1438
     56 H25        23.2328  -14.2978    9.0863 H       1  <0>         0.1438
     57 H26        19.5431  -25.0867   10.7293 H       1  <0>         0.2013
     58 H27        19.1277  -23.7540   11.6471 H       1  <0>         0.2013
     59 H28        22.3192  -16.3966    2.6290 H       1  <0>         0.2114
@<TRIPOS>BOND
     1     1     9    1
     2     2    21    1
     3     3    21    1
     4     4    13   ar
     5     4    23   ar
     6     5     6    1
     7     5     7    1
     8     6    20    1
     9     7    27    1
    10     8    20    1
    11     8    27    1
    12     9    28    1
    13    10    20    1
    14    10    31    1
    15    11    12    3
    16    11    14    1
    17    12    21    1
    18    13    16   ar
    19    13    31    1
    20    14    15   ar
    21    14    23   ar
    22    15    16   ar
    23    15    24    1
    24    16    28    1
    25    17    18    1
    26    17    19    1
    27    17    25    2
    28    18    22    1
    29    18    26    2
    30    19    24    2
    31    19    28    1
    32    21    29    1
    33    25    30    1
    34    26    30    1
    35     1    32    1
    36     1    33    1
    37     1    34    1
    38     2    35    1
    39     2    36    1
    40     2    37    1
    41     3    38    1
    42     3    39    1
    43     3    40    1
    44     4    41    1
    45     5    42    1
    46     5    43    1
    47     6    44    1
    48     6    45    1
    49     7    46    1
    50     7    47    1
    51     8    48    1
    52     8    49    1
    53     9    50    1
    54     9    51    1
    55    10    52    1
    56    10    53    1
    57    20    54    1
    58    22    55    1
    59    22    56    1
    60    27    57    1
    61    27    58    1
    62    29    59    1
@<TRIPOS>SUBSTRUCTURE
     1 <0>         1 TEMP              0 ****  ****    0 ROOT

