
##########                                Name:          G93_1_3D0E
##########                    Molecular_Weight:             426.499
##########                DOCK_Rotatable_Bonds:                   8
##########                       Formal_Charge:              1.0001
##########                     HBond_Acceptors:                  10
##########                        HBond_Donors:                   5
##########                         Heavy_Atoms:                  31
##########                            HA_RMSDs:               0.267
##########                            HA_RMSDh:               0.267
##########                            HA_RMSDm:               0.267
##########                          Grid_Score:         -128.081085
##########                     Grid_vdw_energy:          -53.875294
##########                      Grid_es_energy:          -74.205795
##########           Internal_energy_repulsive:           17.140261

@<TRIPOS>MOLECULE
G93_1_3D0E
 59 62 1 0 0
SMALL
USER_CHARGES


@<TRIPOS>ATOM
      1 C1         23.3592  -20.1632   11.6776 C.3     1  <0>        -0.0489
      2 C2         25.3061  -15.2150    3.2540 C.3     1  <0>        -0.0249
      3 C3         23.0841  -14.2605    3.9092 C.3     1  <0>        -0.0249
      4 C4         22.9363  -20.4696    6.7298 C.ar    1  <0>         0.0609
      5 C5         22.1483  -24.9912   11.3644 C.3     1  <0>        -0.0121
      6 C6         22.6122  -23.8802   10.4323 C.3     1  <0>        -0.0384
      7 C7         20.7756  -24.6665   11.9509 C.3     1  <0>        -0.0337
      8 C8         20.2725  -23.2803    9.8661 C.3     1  <0>        -0.0286
      9 C9         22.1753  -19.4409   11.0796 C.3     1  <0>         0.0160
     10 C10        22.1263  -22.7169    8.2681 C.3     1  <0>         0.0620
     11 C11        23.5462  -17.2007    5.6242 C.1     1  <0>        -0.0414
     12 C12        23.7923  -16.4688    4.7091 C.1     1  <0>        -0.0614
     13 C13        22.6781  -20.3254    8.0973 C.ar    1  <0>         0.1177
     14 C14        23.2894  -18.1555    6.4522 C.ar    1  <0>         0.1408
     15 C15        23.0346  -17.9361    7.8094 C.ar    1  <0>         0.1236
     16 C16        22.7352  -19.0307    8.6305 C.ar    1  <0>         0.0954
     17 C17        22.6293  -16.3250   10.9801 C.2     1  <0>         0.1750
     18 C18        22.4934  -14.9501   10.8232 C.2     1  <0>         0.1773
     19 C19        22.7158  -17.2894    9.8251 C.2     1  <0>         0.1578
     20 C20        21.6130  -23.7221    9.2943 C.3     1  <0>         0.0232
     21 C21        23.8495  -15.5336    3.5638 C.3     1  <0>         0.1212
     22 N1         22.3814  -14.3296    9.6122 N.pl3   1  <0>        -0.3395
     23 N2         23.2228  -19.4109    5.9604 N.ar    1  <0>        -0.2419
     24 N3         23.0243  -16.8356    8.5885 N.2     1  <0>        -0.2252
     25 N4         22.7398  -16.6649   12.2864 N.2     1  <0>        -0.0977
     26 N5         22.4521  -14.2870   11.9907 N.2     1  <0>        -0.0872
     27 N6         19.8472  -24.1382   10.9661 N.4     1  <0>         0.2272
     28 N7         22.5337  -18.6255    9.9032 N.pl3   1  <0>        -0.2797
     29 O1         23.2755  -16.1452    2.4047 O.3     1  <0>        -0.3771
     30 O2         22.6127  -15.3715   12.9210 O.3     1  <0>        -0.1041
     31 O3         22.3792  -21.4337    8.8600 O.3     1  <0>        -0.3408
     32 H1         23.0299  -20.7511   12.5470 H       1  <0>         0.0245
     33 H2         23.7968  -20.8355   10.9250 H       1  <0>         0.0245
     34 H3         24.1137  -19.4289   11.9964 H       1  <0>         0.0245
     35 H4         25.8408  -16.1442    3.0076 H       1  <0>         0.0267
     36 H5         25.3565  -14.5254    2.3985 H       1  <0>         0.0267
     37 H6         25.7733  -14.7451    4.1320 H       1  <0>         0.0267
     38 H7         22.0358  -14.5106    4.1296 H       1  <0>         0.0267
     39 H8         23.5407  -13.7860    4.7904 H       1  <0>         0.0267
     40 H9         23.1238  -13.5662    3.0569 H       1  <0>         0.0267
     41 H10        22.9041  -21.4536    6.2858 H       1  <0>         0.0857
     42 H11        22.0834  -25.9318   10.7977 H       1  <0>         0.0317
     43 H12        22.8733  -25.0979   12.1847 H       1  <0>         0.0317
     44 H13        22.6816  -22.9364   10.9929 H       1  <0>         0.0272
     45 H14        23.5996  -24.1356   10.0204 H       1  <0>         0.0272
     46 H15        20.3495  -25.5920   12.3657 H       1  <0>         0.0814
     47 H16        20.9072  -23.9126   12.7410 H       1  <0>         0.0814
     48 H17        20.3695  -22.2499   10.2386 H       1  <0>         0.0817
     49 H18        19.5158  -23.3263    9.0691 H       1  <0>         0.0817
     50 H19        21.4337  -20.1911   10.7678 H       1  <0>         0.0465
     51 H20        21.7528  -18.7750   11.8465 H       1  <0>         0.0465
     52 H21        23.0644  -23.0986    7.8388 H       1  <0>         0.0570
     53 H22        21.3680  -22.5988    7.4801 H       1  <0>         0.0570
     54 H23        21.4848  -24.6865    8.7808 H       1  <0>         0.0375
     55 H24        22.2520  -13.3477    9.7510 H       1  <0>         0.1438
     56 H25        23.2140  -14.4841    9.0804 H       1  <0>         0.1438
     57 H26        19.4379  -24.9408   10.5320 H       1  <0>         0.2013
     58 H27        19.1911  -23.5929   11.4877 H       1  <0>         0.2013
     59 H28        22.3879  -16.4226    2.5992 H       1  <0>         0.2114
@<TRIPOS>BOND
     1     1     9    1
     2     2    21    1
     3     3    21    1
     4     4    13   ar
     5     4    23   ar
     6     5     6    1
     7     5     7    1
     8     6    20    1
     9     7    27    1
    10     8    20    1
    11     8    27    1
    12     9    28    1
    13    10    20    1
    14    10    31    1
    15    11    12    3
    16    11    14    1
    17    12    21    1
    18    13    16   ar
    19    13    31    1
    20    14    15   ar
    21    14    23   ar
    22    15    16   ar
    23    15    24    1
    24    16    28    1
    25    17    18    1
    26    17    19    1
    27    17    25    2
    28    18    22    1
    29    18    26    2
    30    19    24    2
    31    19    28    1
    32    21    29    1
    33    25    30    1
    34    26    30    1
    35     1    32    1
    36     1    33    1
    37     1    34    1
    38     2    35    1
    39     2    36    1
    40     2    37    1
    41     3    38    1
    42     3    39    1
    43     3    40    1
    44     4    41    1
    45     5    42    1
    46     5    43    1
    47     6    44    1
    48     6    45    1
    49     7    46    1
    50     7    47    1
    51     8    48    1
    52     8    49    1
    53     9    50    1
    54     9    51    1
    55    10    52    1
    56    10    53    1
    57    20    54    1
    58    22    55    1
    59    22    56    1
    60    27    57    1
    61    27    58    1
    62    29    59    1
@<TRIPOS>SUBSTRUCTURE
     1 <0>         1 TEMP              0 ****  ****    0 ROOT

