
##########                                Name:          G93_1_3D0E
##########                    Molecular_Weight:             426.499
##########                DOCK_Rotatable_Bonds:                   8
##########                       Formal_Charge:              1.0001
##########                     HBond_Acceptors:                  10
##########                        HBond_Donors:                   5
##########                         Heavy_Atoms:                  31
##########                            HA_RMSDs:               0.315
##########                            HA_RMSDh:               0.315
##########                            HA_RMSDm:               0.315
##########                          Grid_Score:         -132.991760
##########                     Grid_vdw_energy:          -61.917267
##########                      Grid_es_energy:          -71.074493
##########           Internal_energy_repulsive:           17.107285

@<TRIPOS>MOLECULE
G93_1_3D0E
 59 62 1 0 0
SMALL
USER_CHARGES


@<TRIPOS>ATOM
      1 C1         23.0262  -20.0239   11.8208 C.3     1  <0>        -0.0489
      2 C2         25.3018  -15.6030    3.1661 C.3     1  <0>        -0.0249
      3 C3         23.1195  -14.5243    3.7591 C.3     1  <0>        -0.0249
      4 C4         22.6325  -20.6346    6.7527 C.ar    1  <0>         0.0609
      5 C5         22.4039  -25.0739   11.4804 C.3     1  <0>        -0.0121
      6 C6         22.7135  -23.9584   10.4914 C.3     1  <0>        -0.0384
      7 C7         21.0931  -24.7969   12.2143 C.3     1  <0>        -0.0337
      8 C8         20.3022  -23.4622   10.1860 C.3     1  <0>        -0.0286
      9 C9         21.8584  -19.4441   11.0587 C.3     1  <0>         0.0160
     10 C10        21.9402  -22.8468    8.3844 C.3     1  <0>         0.0620
     11 C11        23.4144  -17.4321    5.5641 C.1     1  <0>        -0.0414
     12 C12        23.7087  -16.7397    4.6326 C.1     1  <0>        -0.0614
     13 C13        22.3616  -20.4384    8.1112 C.ar    1  <0>         0.1177
     14 C14        23.1001  -18.3489    6.4148 C.ar    1  <0>         0.1408
     15 C15        22.8364  -18.0781    7.7609 C.ar    1  <0>         0.1236
     16 C16        22.4729  -19.1328    8.6080 C.ar    1  <0>         0.0954
     17 C17        22.4626  -16.3575   10.8775 C.2     1  <0>         0.1750
     18 C18        22.4688  -14.9810   10.6814 C.2     1  <0>         0.1773
     19 C19        22.5196  -17.3583    9.7520 C.2     1  <0>         0.1578
     20 C20        21.5876  -23.8573    9.4715 C.3     1  <0>         0.0232
     21 C21        23.8272  -15.8422    3.4621 C.3     1  <0>         0.1212
     22 N1         22.4845  -14.3874    9.4519 N.pl3   1  <0>        -0.3395
     23 N2         22.9806  -19.6137    5.9580 N.ar    1  <0>        -0.2419
     24 N3         22.8674  -16.9560    8.5081 N.2     1  <0>        -0.2252
     25 N4         22.4671  -16.6690   12.1956 N.2     1  <0>        -0.0977
     26 N5         22.4269  -14.2839   11.8289 N.2     1  <0>        -0.0872
     27 N6         20.0390  -24.3208   11.3350 N.4     1  <0>         0.2272
     28 N7         22.2725  -18.6814    9.8653 N.pl3   1  <0>        -0.2797
     29 O1         23.2408  -16.4592    2.3121 O.3     1  <0>        -0.3771
     30 O2         22.4304  -15.3517   12.7917 O.3     1  <0>        -0.1041
     31 O3         21.9988  -21.5084    8.9003 O.3     1  <0>        -0.3408
     32 H1         22.6550  -20.5784   12.6953 H       1  <0>         0.0245
     33 H2         23.5887  -20.7058   11.1662 H       1  <0>         0.0245
     34 H3         23.6856  -19.2098   12.1560 H       1  <0>         0.0245
     35 H4         25.7944  -16.5636    2.9546 H       1  <0>         0.0267
     36 H5         25.3977  -14.9419    2.2922 H       1  <0>         0.0267
     37 H6         25.7787  -15.1306    4.0375 H       1  <0>         0.0267
     38 H7         22.0573  -14.7174    3.9701 H       1  <0>         0.0267
     39 H8         23.5859  -14.0468    4.6334 H       1  <0>         0.0267
     40 H9         23.2048  -13.8580    2.8881 H       1  <0>         0.0267
     41 H10        22.5596  -21.6285    6.3365 H       1  <0>         0.0857
     42 H11        22.3155  -26.0243   10.9337 H       1  <0>         0.0317
     43 H12        23.2200  -25.1393   12.2151 H       1  <0>         0.0317
     44 H13        22.8057  -23.0046   11.0315 H       1  <0>         0.0272
     45 H14        23.6585  -24.1793    9.9736 H       1  <0>         0.0272
     46 H15        20.7553  -25.7328   12.6832 H       1  <0>         0.0814
     47 H16        21.2805  -24.0270   12.9773 H       1  <0>         0.0814
     48 H17        20.3968  -22.4234   10.5353 H       1  <0>         0.0817
     49 H18        19.4636  -23.5502    9.4795 H       1  <0>         0.0817
     50 H19        21.2122  -20.2725   10.7328 H       1  <0>         0.0465
     51 H20        21.3097  -18.7663   11.7293 H       1  <0>         0.0465
     52 H21        22.9237  -23.1072    7.9661 H       1  <0>         0.0570
     53 H22        21.1701  -22.8893    7.6001 H       1  <0>         0.0570
     54 H23        21.4433  -24.8333    8.9849 H       1  <0>         0.0375
     55 H24        22.7150  -13.4194    9.5515 H       1  <0>         0.1438
     56 H25        23.1675  -14.8348    8.8746 H       1  <0>         0.1438
     57 H26        19.6177  -25.1455   10.9574 H       1  <0>         0.2013
     58 H27        19.4230  -23.7952   11.9218 H       1  <0>         0.2013
     59 H28        22.3169  -16.6127    2.4710 H       1  <0>         0.2114
@<TRIPOS>BOND
     1     1     9    1
     2     2    21    1
     3     3    21    1
     4     4    13   ar
     5     4    23   ar
     6     5     6    1
     7     5     7    1
     8     6    20    1
     9     7    27    1
    10     8    20    1
    11     8    27    1
    12     9    28    1
    13    10    20    1
    14    10    31    1
    15    11    12    3
    16    11    14    1
    17    12    21    1
    18    13    16   ar
    19    13    31    1
    20    14    15   ar
    21    14    23   ar
    22    15    16   ar
    23    15    24    1
    24    16    28    1
    25    17    18    1
    26    17    19    1
    27    17    25    2
    28    18    22    1
    29    18    26    2
    30    19    24    2
    31    19    28    1
    32    21    29    1
    33    25    30    1
    34    26    30    1
    35     1    32    1
    36     1    33    1
    37     1    34    1
    38     2    35    1
    39     2    36    1
    40     2    37    1
    41     3    38    1
    42     3    39    1
    43     3    40    1
    44     4    41    1
    45     5    42    1
    46     5    43    1
    47     6    44    1
    48     6    45    1
    49     7    46    1
    50     7    47    1
    51     8    48    1
    52     8    49    1
    53     9    50    1
    54     9    51    1
    55    10    52    1
    56    10    53    1
    57    20    54    1
    58    22    55    1
    59    22    56    1
    60    27    57    1
    61    27    58    1
    62    29    59    1
@<TRIPOS>SUBSTRUCTURE
     1 <0>         1 TEMP              0 ****  ****    0 ROOT

