
##########                                Name:          G93_1_3D0E
##########                    Molecular_Weight:             426.499
##########                DOCK_Rotatable_Bonds:                   8
##########                       Formal_Charge:              1.0001
##########                     HBond_Acceptors:                  10
##########                        HBond_Donors:                   5
##########                         Heavy_Atoms:                  31
##########                            HA_RMSDs:               0.383
##########                            HA_RMSDh:               0.383
##########                            HA_RMSDm:               0.383
##########                          Grid_Score:         -132.254486
##########                     Grid_vdw_energy:          -59.681721
##########                      Grid_es_energy:          -72.572769
##########           Internal_energy_repulsive:           17.604673

@<TRIPOS>MOLECULE
G93_1_3D0E
 59 62 1 0 0
SMALL
USER_CHARGES


@<TRIPOS>ATOM
      1 C1         23.2458  -20.0622   11.8354 C.3     1  <0>        -0.0489
      2 C2         25.0752  -14.9916    3.4920 C.3     1  <0>        -0.0249
      3 C3         22.7118  -14.2992    3.9532 C.3     1  <0>        -0.0249
      4 C4         22.7785  -20.4164    6.8561 C.ar    1  <0>         0.0609
      5 C5         22.3404  -25.0837   11.4205 C.3     1  <0>        -0.0121
      6 C6         22.7603  -23.9483   10.4971 C.3     1  <0>        -0.0384
      7 C7         21.0214  -24.7540   12.1171 C.3     1  <0>        -0.0337
      8 C8         20.3998  -23.2817   10.1255 C.3     1  <0>        -0.0286
      9 C9         22.0448  -19.3918   11.2116 C.3     1  <0>         0.0160
     10 C10        22.1451  -22.6961    8.4171 C.3     1  <0>         0.0620
     11 C11        23.3642  -17.1445    5.7464 C.1     1  <0>        -0.0414
     12 C12        23.6000  -16.4113    4.8296 C.1     1  <0>        -0.0614
     13 C13        22.5297  -20.2736    8.2255 C.ar    1  <0>         0.1177
     14 C14        23.1182  -18.1006    6.5761 C.ar    1  <0>         0.1408
     15 C15        22.8725  -17.8825    7.9352 C.ar    1  <0>         0.1236
     16 C16        22.5845  -18.9787    8.7584 C.ar    1  <0>         0.0954
     17 C17        22.4830  -16.2737   11.1091 C.2     1  <0>         0.1750
     18 C18        22.4267  -14.8931   10.9543 C.2     1  <0>         0.1773
     19 C19        22.5655  -17.2376    9.9533 C.2     1  <0>         0.1578
     20 C20        21.6852  -23.7284    9.4417 C.3     1  <0>         0.0232
     21 C21        23.6441  -15.4757    3.6840 C.3     1  <0>         0.1212
     22 N1         22.3978  -14.2635    9.7431 N.pl3   1  <0>        -0.3395
     23 N2         23.0541  -19.3563    6.0847 N.ar    1  <0>        -0.2419
     24 N3         22.8626  -16.7822    8.7146 N.2     1  <0>        -0.2252
     25 N4         22.5214  -16.6233   12.4170 N.2     1  <0>        -0.0977
     26 N5         22.3728  -14.2325   12.1227 N.2     1  <0>        -0.0872
     27 N6         20.0362  -24.1713   11.2224 N.4     1  <0>         0.2272
     28 N7         22.3905  -18.5746   10.0326 N.pl3   1  <0>        -0.2797
     29 O1         23.2420  -16.1493    2.4875 O.3     1  <0>        -0.3771
     30 O2         22.4372  -15.3270   13.0529 O.3     1  <0>        -0.1041
     31 O3         22.2418  -21.3834    8.9902 O.3     1  <0>        -0.3408
     32 H1         22.9253  -20.6540   12.7054 H       1  <0>         0.0245
     33 H2         23.7207  -20.7244   11.0965 H       1  <0>         0.0245
     34 H3         23.9663  -19.2964   12.1584 H       1  <0>         0.0245
     35 H4         25.7316  -15.8530    3.2993 H       1  <0>         0.0267
     36 H5         25.1168  -14.3007    2.6371 H       1  <0>         0.0267
     37 H6         25.4111  -14.4710    4.4010 H       1  <0>         0.0267
     38 H7         21.6845  -14.6683    4.0890 H       1  <0>         0.0267
     39 H8         23.0364  -13.7754    4.8644 H       1  <0>         0.0267
     40 H9         22.7420  -13.6050    3.1005 H       1  <0>         0.0267
     41 H10        22.7477  -21.4005    6.4122 H       1  <0>         0.0857
     42 H11        22.2135  -26.0011   10.8271 H       1  <0>         0.0317
     43 H12        23.1204  -25.2351   12.1813 H       1  <0>         0.0317
     44 H13        22.8914  -23.0276   11.0844 H       1  <0>         0.0272
     45 H14        23.7093  -24.2077   10.0052 H       1  <0>         0.0272
     46 H15        20.6059  -25.6856   12.5288 H       1  <0>         0.0814
     47 H16        21.2268  -24.0327   12.9218 H       1  <0>         0.0814
     48 H17        20.5466  -22.2679   10.5263 H       1  <0>         0.0817
     49 H18        19.5866  -23.2830    9.3848 H       1  <0>         0.0817
     50 H19        21.3376  -20.1730   10.8958 H       1  <0>         0.0465
     51 H20        21.5848  -18.7353   11.9649 H       1  <0>         0.0465
     52 H21        23.1357  -22.9904    8.0399 H       1  <0>         0.0570
     53 H22        21.4173  -22.6685    7.5928 H       1  <0>         0.0570
     54 H23        21.4985  -24.6702    8.9050 H       1  <0>         0.0375
     55 H24        22.4913  -13.2770    9.8774 H       1  <0>         0.1438
     56 H25        23.1520  -14.5957    9.1768 H       1  <0>         0.1438
     57 H26        19.5787  -24.9489   10.7911 H       1  <0>         0.2013
     58 H27        19.4320  -23.6328   11.8098 H       1  <0>         0.2013
     59 H28        22.3703  -16.5089    2.6037 H       1  <0>         0.2114
@<TRIPOS>BOND
     1     1     9    1
     2     2    21    1
     3     3    21    1
     4     4    13   ar
     5     4    23   ar
     6     5     6    1
     7     5     7    1
     8     6    20    1
     9     7    27    1
    10     8    20    1
    11     8    27    1
    12     9    28    1
    13    10    20    1
    14    10    31    1
    15    11    12    3
    16    11    14    1
    17    12    21    1
    18    13    16   ar
    19    13    31    1
    20    14    15   ar
    21    14    23   ar
    22    15    16   ar
    23    15    24    1
    24    16    28    1
    25    17    18    1
    26    17    19    1
    27    17    25    2
    28    18    22    1
    29    18    26    2
    30    19    24    2
    31    19    28    1
    32    21    29    1
    33    25    30    1
    34    26    30    1
    35     1    32    1
    36     1    33    1
    37     1    34    1
    38     2    35    1
    39     2    36    1
    40     2    37    1
    41     3    38    1
    42     3    39    1
    43     3    40    1
    44     4    41    1
    45     5    42    1
    46     5    43    1
    47     6    44    1
    48     6    45    1
    49     7    46    1
    50     7    47    1
    51     8    48    1
    52     8    49    1
    53     9    50    1
    54     9    51    1
    55    10    52    1
    56    10    53    1
    57    20    54    1
    58    22    55    1
    59    22    56    1
    60    27    57    1
    61    27    58    1
    62    29    59    1
@<TRIPOS>SUBSTRUCTURE
     1 <0>         1 TEMP              0 ****  ****    0 ROOT

