
##########                                Name:          G93_1_3D0E
##########                    Molecular_Weight:             426.499
##########                DOCK_Rotatable_Bonds:                   8
##########                       Formal_Charge:              1.0001
##########                     HBond_Acceptors:                  10
##########                        HBond_Donors:                   5
##########                         Heavy_Atoms:                  31
##########                            HA_RMSDs:               0.362
##########                            HA_RMSDh:               0.362
##########                            HA_RMSDm:               0.362
##########                          Grid_Score:         -135.767197
##########                     Grid_vdw_energy:          -64.431221
##########                      Grid_es_energy:          -71.335976
##########           Internal_energy_repulsive:           16.255047

@<TRIPOS>MOLECULE
G93_1_3D0E
 59 62 1 0 0
SMALL
USER_CHARGES


@<TRIPOS>ATOM
      1 C1         23.0006  -20.1100   11.8306 C.3     1  <0>        -0.0489
      2 C2         25.0785  -15.3081    3.3733 C.3     1  <0>        -0.0249
      3 C3         22.7379  -14.5253    3.8057 C.3     1  <0>        -0.0249
      4 C4         22.5424  -20.6193    6.7488 C.ar    1  <0>         0.0609
      5 C5         22.3503  -25.1942   11.3693 C.3     1  <0>        -0.0121
      6 C6         22.6696  -24.0561   10.4097 C.3     1  <0>        -0.0384
      7 C7         21.0469  -24.9206   12.1176 C.3     1  <0>        -0.0337
      8 C8         20.2634  -23.5205   10.1310 C.3     1  <0>        -0.0286
      9 C9         21.8142  -19.5381   11.0916 C.3     1  <0>         0.0160
     10 C10        21.9003  -22.8771    8.3382 C.3     1  <0>         0.0620
     11 C11        23.2660  -17.3804    5.6239 C.1     1  <0>        -0.0414
     12 C12        23.5381  -16.6630    4.7045 C.1     1  <0>        -0.0614
     13 C13        22.2883  -20.4579    8.1152 C.ar    1  <0>         0.1177
     14 C14        22.9757  -18.3205    6.4574 C.ar    1  <0>         0.1408
     15 C15        22.7276  -18.0841    7.8130 C.ar    1  <0>         0.1236
     16 C16        22.3898  -19.1626    8.6405 C.ar    1  <0>         0.0954
     17 C17        22.3760  -16.4405   10.9734 C.2     1  <0>         0.1750
     18 C18        22.2737  -15.0637   10.8081 C.2     1  <0>         0.1773
     19 C19        22.4299  -17.4144    9.8244 C.2     1  <0>         0.1578
     20 C20        21.5400  -23.9124    9.3990 C.3     1  <0>         0.0232
     21 C21        23.6285  -15.7375    3.5536 C.3     1  <0>         0.1212
     22 N1         22.1689  -14.4485    9.5937 N.pl3   1  <0>        -0.3395
     23 N2         22.8660  -19.5759    5.9732 N.ar    1  <0>        -0.2419
     24 N3         22.7548  -16.9791    8.5854 N.2     1  <0>        -0.2252
     25 N4         22.4871  -16.7744   12.2812 N.2     1  <0>        -0.0977
     26 N5         22.2575  -14.3920   11.9713 N.2     1  <0>        -0.0872
     27 N6         19.9948  -24.4070   11.2573 N.4     1  <0>         0.2272
     28 N7         22.2015  -18.7429    9.9104 N.pl3   1  <0>        -0.2797
     29 O1         23.2137  -16.4037    2.3573 O.3     1  <0>        -0.3771
     30 O2         22.3973  -15.4740   12.9079 O.3     1  <0>        -0.1041
     31 O3         21.9505  -21.5504    8.8843 O.3     1  <0>        -0.3408
     32 H1         22.6490  -20.6897   12.6968 H       1  <0>         0.0245
     33 H2         23.5702  -20.7668   11.1568 H       1  <0>         0.0245
     34 H3         23.6470  -19.2899   12.1765 H       1  <0>         0.0245
     35 H4         25.7042  -16.1946    3.1927 H       1  <0>         0.0267
     36 H5         25.1544  -14.6250    2.5145 H       1  <0>         0.0267
     37 H6         25.4244  -14.7943    4.2823 H       1  <0>         0.0267
     38 H7         21.6963  -14.8552    3.9332 H       1  <0>         0.0267
     39 H8         23.0726  -14.0078    4.7168 H       1  <0>         0.0267
     40 H9         22.8025  -13.8385    2.9490 H       1  <0>         0.0267
     41 H10        22.4764  -21.6043    6.3109 H       1  <0>         0.0857
     42 H11        22.2468  -26.1280   10.7973 H       1  <0>         0.0317
     43 H12        23.1691  -25.2904   12.0976 H       1  <0>         0.0317
     44 H13        22.7768  -23.1188   10.9753 H       1  <0>         0.0272
     45 H14        23.6090  -24.2749    9.8810 H       1  <0>         0.0272
     46 H15        20.6992  -25.8646   12.5625 H       1  <0>         0.0814
     47 H16        21.2481  -24.1745   12.9004 H       1  <0>         0.0814
     48 H17        20.3734  -22.4931   10.5081 H       1  <0>         0.0817
     49 H18        19.4203  -23.5782    9.4268 H       1  <0>         0.0817
     50 H19        21.1814  -20.3725   10.7546 H       1  <0>         0.0465
     51 H20        21.2587  -18.8854   11.7812 H       1  <0>         0.0465
     52 H21        22.8885  -23.1257    7.9237 H       1  <0>         0.0570
     53 H22        21.1379  -22.9038    7.5457 H       1  <0>         0.0570
     54 H23        21.3805  -24.8727    8.8866 H       1  <0>         0.0375
     55 H24        21.8996  -13.4944    9.7250 H       1  <0>         0.1438
     56 H25        23.0515  -14.4842    9.1249 H       1  <0>         0.1438
     57 H26        19.5608  -25.2154   10.8595 H       1  <0>         0.2013
     58 H27        19.3887  -23.8897   11.8617 H       1  <0>         0.2013
     59 H28        22.2675  -16.4892    2.3538 H       1  <0>         0.2114
@<TRIPOS>BOND
     1     1     9    1
     2     2    21    1
     3     3    21    1
     4     4    13   ar
     5     4    23   ar
     6     5     6    1
     7     5     7    1
     8     6    20    1
     9     7    27    1
    10     8    20    1
    11     8    27    1
    12     9    28    1
    13    10    20    1
    14    10    31    1
    15    11    12    3
    16    11    14    1
    17    12    21    1
    18    13    16   ar
    19    13    31    1
    20    14    15   ar
    21    14    23   ar
    22    15    16   ar
    23    15    24    1
    24    16    28    1
    25    17    18    1
    26    17    19    1
    27    17    25    2
    28    18    22    1
    29    18    26    2
    30    19    24    2
    31    19    28    1
    32    21    29    1
    33    25    30    1
    34    26    30    1
    35     1    32    1
    36     1    33    1
    37     1    34    1
    38     2    35    1
    39     2    36    1
    40     2    37    1
    41     3    38    1
    42     3    39    1
    43     3    40    1
    44     4    41    1
    45     5    42    1
    46     5    43    1
    47     6    44    1
    48     6    45    1
    49     7    46    1
    50     7    47    1
    51     8    48    1
    52     8    49    1
    53     9    50    1
    54     9    51    1
    55    10    52    1
    56    10    53    1
    57    20    54    1
    58    22    55    1
    59    22    56    1
    60    27    57    1
    61    27    58    1
    62    29    59    1
@<TRIPOS>SUBSTRUCTURE
     1 <0>         1 TEMP              0 ****  ****    0 ROOT

