
##########                                Name:          G93_1_3D0E
##########                    Molecular_Weight:             426.499
##########                DOCK_Rotatable_Bonds:                   8
##########                       Formal_Charge:              1.0001
##########                     HBond_Acceptors:                  10
##########                        HBond_Donors:                   5
##########                         Heavy_Atoms:                  31
##########                            HA_RMSDs:               0.275
##########                            HA_RMSDh:               0.275
##########                            HA_RMSDm:               0.275
##########                          Grid_Score:         -127.137268
##########                     Grid_vdw_energy:          -52.723919
##########                      Grid_es_energy:          -74.413345
##########           Internal_energy_repulsive:           16.935699

@<TRIPOS>MOLECULE
G93_1_3D0E
 59 62 1 0 0
SMALL
USER_CHARGES


@<TRIPOS>ATOM
      1 C1         23.3934  -20.1159   11.7177 C.3     1  <0>        -0.0489
      2 C2         25.2255  -15.2655    3.1950 C.3     1  <0>        -0.0249
      3 C3         23.0541  -14.2522    3.9272 C.3     1  <0>        -0.0249
      4 C4         22.9040  -20.4805    6.7348 C.ar    1  <0>         0.0609
      5 C5         22.1092  -25.0084   11.3867 C.3     1  <0>        -0.0121
      6 C6         22.5998  -23.9020   10.4629 C.3     1  <0>        -0.0384
      7 C7         20.7268  -24.6738   11.9439 C.3     1  <0>        -0.0337
      8 C8         20.2765  -23.2877    9.8471 C.3     1  <0>        -0.0286
      9 C9         22.1906  -19.4501   11.0923 C.3     1  <0>         0.0160
     10 C10        22.1669  -22.7390    8.2873 C.3     1  <0>         0.0620
     11 C11        23.4955  -17.2113    5.6202 C.1     1  <0>        -0.0414
     12 C12        23.7300  -16.4795    4.7018 C.1     1  <0>        -0.0614
     13 C13        22.6611  -20.3358    8.1050 C.ar    1  <0>         0.1177
     14 C14        23.2498  -18.1659    6.4516 C.ar    1  <0>         0.1408
     15 C15        23.0101  -17.9460    7.8115 C.ar    1  <0>         0.1236
     16 C16        22.7219  -19.0406    8.6366 C.ar    1  <0>         0.0954
     17 C17        22.6381  -16.3334   10.9855 C.2     1  <0>         0.1750
     18 C18        22.5263  -14.9563   10.8290 C.2     1  <0>         0.1773
     19 C19        22.7131  -17.2985    9.8302 C.2     1  <0>         0.1578
     20 C20        21.6257  -23.7392    9.3041 C.3     1  <0>         0.0232
     21 C21        23.7725  -15.5450    3.5553 C.3     1  <0>         0.1212
     22 N1         22.4303  -14.3332    9.6179 N.pl3   1  <0>        -0.3395
     23 N2         23.1799  -19.4218    5.9614 N.ar    1  <0>        -0.2419
     24 N3         23.0067  -16.8450    8.5899 N.2     1  <0>        -0.2252
     25 N4         22.7370  -16.6760   12.2921 N.2     1  <0>        -0.0977
     26 N5         22.4913  -14.2933   11.9967 N.2     1  <0>        -0.0872
     27 N6         19.8227  -24.1410   10.9392 N.4     1  <0>         0.2272
     28 N7         22.5342  -18.6349    9.9113 N.pl3   1  <0>        -0.2797
     29 O1         23.1423  -16.1398    2.4168 O.3     1  <0>        -0.3771
     30 O2         22.6293  -15.3809   12.9270 O.3     1  <0>        -0.1041
     31 O3         22.3728  -21.4440    8.8718 O.3     1  <0>        -0.3408
     32 H1         23.0744  -20.7064   12.5892 H       1  <0>         0.0245
     33 H2         23.8699  -20.7787   10.9804 H       1  <0>         0.0245
     34 H3         24.1120  -19.3475   12.0388 H       1  <0>         0.0245
     35 H4         25.7261  -16.2084    2.9301 H       1  <0>         0.0267
     36 H5         25.2647  -14.5766    2.3385 H       1  <0>         0.0267
     37 H6         25.7354  -14.8092    4.0564 H       1  <0>         0.0267
     38 H7         22.0078  -14.4742    4.1838 H       1  <0>         0.0267
     39 H8         23.5536  -13.7911    4.7921 H       1  <0>         0.0267
     40 H9         23.0829  -13.5583    3.0741 H       1  <0>         0.0267
     41 H10        22.8684  -21.4648    6.2919 H       1  <0>         0.0857
     42 H11        22.0500  -25.9494   10.8203 H       1  <0>         0.0317
     43 H12        22.8162  -25.1185   12.2222 H       1  <0>         0.0317
     44 H13        22.6637  -22.9578   11.0235 H       1  <0>         0.0272
     45 H14        23.5939  -24.1645   10.0721 H       1  <0>         0.0272
     46 H15        20.2860  -25.5957   12.3511 H       1  <0>         0.0814
     47 H16        20.8467  -23.9194   12.7355 H       1  <0>         0.0814
     48 H17        20.3724  -22.2573   10.2200 H       1  <0>         0.0817
     49 H18        19.5363  -23.3299    9.0344 H       1  <0>         0.0817
     50 H19        21.4854  -20.2338   10.7785 H       1  <0>         0.0465
     51 H20        21.7291  -18.7928   11.8440 H       1  <0>         0.0465
     52 H21        23.1290  -23.1105    7.9046 H       1  <0>         0.0570
     53 H22        21.4419  -22.6440    7.4655 H       1  <0>         0.0570
     54 H23        21.5019  -24.7035    8.7894 H       1  <0>         0.0375
     55 H24        22.2583  -13.3580    9.7570 H       1  <0>         0.1438
     56 H25        23.2854  -14.4522    9.1133 H       1  <0>         0.1438
     57 H26        19.4172  -24.9415   10.4978 H       1  <0>         0.2013
     58 H27        19.1594  -23.5905   11.4462 H       1  <0>         0.2013
     59 H28        22.2358  -16.3361    2.6226 H       1  <0>         0.2114
@<TRIPOS>BOND
     1     1     9    1
     2     2    21    1
     3     3    21    1
     4     4    13   ar
     5     4    23   ar
     6     5     6    1
     7     5     7    1
     8     6    20    1
     9     7    27    1
    10     8    20    1
    11     8    27    1
    12     9    28    1
    13    10    20    1
    14    10    31    1
    15    11    12    3
    16    11    14    1
    17    12    21    1
    18    13    16   ar
    19    13    31    1
    20    14    15   ar
    21    14    23   ar
    22    15    16   ar
    23    15    24    1
    24    16    28    1
    25    17    18    1
    26    17    19    1
    27    17    25    2
    28    18    22    1
    29    18    26    2
    30    19    24    2
    31    19    28    1
    32    21    29    1
    33    25    30    1
    34    26    30    1
    35     1    32    1
    36     1    33    1
    37     1    34    1
    38     2    35    1
    39     2    36    1
    40     2    37    1
    41     3    38    1
    42     3    39    1
    43     3    40    1
    44     4    41    1
    45     5    42    1
    46     5    43    1
    47     6    44    1
    48     6    45    1
    49     7    46    1
    50     7    47    1
    51     8    48    1
    52     8    49    1
    53     9    50    1
    54     9    51    1
    55    10    52    1
    56    10    53    1
    57    20    54    1
    58    22    55    1
    59    22    56    1
    60    27    57    1
    61    27    58    1
    62    29    59    1
@<TRIPOS>SUBSTRUCTURE
     1 <0>         1 TEMP              0 ****  ****    0 ROOT

