
##########                                Name:          G93_1_3D0E
##########                    Molecular_Weight:             426.499
##########                DOCK_Rotatable_Bonds:                   8
##########                       Formal_Charge:              1.0001
##########                     HBond_Acceptors:                  10
##########                        HBond_Donors:                   5
##########                         Heavy_Atoms:                  31
##########                            HA_RMSDs:               0.128
##########                            HA_RMSDh:               0.128
##########                            HA_RMSDm:               0.128
##########                          Grid_Score:         -133.401489
##########                     Grid_vdw_energy:          -58.787724
##########                      Grid_es_energy:          -74.613770
##########           Internal_energy_repulsive:           17.973837

@<TRIPOS>MOLECULE
G93_1_3D0E
 59 62 1 0 0
SMALL
USER_CHARGES


@<TRIPOS>ATOM
      1 C1         23.0741  -20.1187   11.4823 C.3     1  <0>        -0.0489
      2 C2         25.3230  -15.2189    3.0943 C.3     1  <0>        -0.0249
      3 C3         23.1123  -14.2156    3.7141 C.3     1  <0>        -0.0249
      4 C4         22.8451  -20.4443    6.5115 C.ar    1  <0>         0.0609
      5 C5         22.0992  -25.0598   11.0050 C.3     1  <0>        -0.0121
      6 C6         22.5134  -23.9306   10.0714 C.3     1  <0>        -0.0384
      7 C7         20.8071  -24.7071   11.7395 C.3     1  <0>        -0.0337
      8 C8         20.1560  -23.2199    9.7684 C.3     1  <0>        -0.0286
      9 C9         21.9081  -19.4171   10.8272 C.3     1  <0>         0.0160
     10 C10        21.8621  -22.6634    8.0115 C.3     1  <0>         0.0620
     11 C11        23.4799  -17.1727    5.4280 C.1     1  <0>        -0.0414
     12 C12        23.7578  -16.4400    4.5226 C.1     1  <0>        -0.0614
     13 C13        22.5326  -20.3007    7.8677 C.ar    1  <0>         0.1177
     14 C14        23.1961  -18.1283    6.2460 C.ar    1  <0>         0.1408
     15 C15        22.8869  -17.9095    7.5919 C.ar    1  <0>         0.1236
     16 C16        22.5615  -19.0053    8.4016 C.ar    1  <0>         0.0954
     17 C17        22.3485  -16.2987   10.7429 C.2     1  <0>         0.1750
     18 C18        22.3212  -14.9174   10.5866 C.2     1  <0>         0.1773
     19 C19        22.4856  -17.2634    9.5930 C.2     1  <0>         0.1578
     20 C20        21.4128  -23.6889    9.0475 C.3     1  <0>         0.0232
     21 C21        23.8547  -15.5052    3.3796 C.3     1  <0>         0.1212
     22 N1         22.3729  -14.2871    9.3766 N.pl3   1  <0>        -0.3395
     23 N2         23.1558  -19.3845    5.7530 N.ar    1  <0>        -0.2419
     24 N3         22.8399  -16.8086    8.3692 N.2     1  <0>        -0.2252
     25 N4         22.3045  -16.6492   12.0504 N.2     1  <0>        -0.0977
     26 N5         22.2076  -14.2564   11.7505 N.2     1  <0>        -0.0872
     27 N6         19.8076  -24.1047   10.8741 N.4     1  <0>         0.2272
     28 N7         22.3080  -18.6004    9.6650 N.pl3   1  <0>        -0.2797
     29 O1         23.2864  -16.1027    2.2104 O.3     1  <0>        -0.3771
     30 O2         22.2013  -15.3520   12.6817 O.3     1  <0>        -0.1041
     31 O3         22.2101  -21.4101    8.6189 O.3     1  <0>        -0.3408
     32 H1         22.7140  -20.7086   12.3380 H       1  <0>         0.0245
     33 H2         23.5562  -20.7868   10.7535 H       1  <0>         0.0245
     34 H3         23.8017  -19.3716   11.8324 H       1  <0>         0.0245
     35 H4         25.8409  -16.1596    2.8556 H       1  <0>         0.0267
     36 H5         25.4029  -14.5298    2.2408 H       1  <0>         0.0267
     37 H6         25.7860  -14.7604    3.9806 H       1  <0>         0.0267
     38 H7         22.0552  -14.4425    3.9167 H       1  <0>         0.0267
     39 H8         23.5647  -13.7524    4.6033 H       1  <0>         0.0267
     40 H9         23.1816  -13.5216    2.8635 H       1  <0>         0.0267
     41 H10        22.8358  -21.4287    6.0674 H       1  <0>         0.0857
     42 H11        21.9386  -25.9736   10.4142 H       1  <0>         0.0317
     43 H12        22.8978  -25.2268   11.7429 H       1  <0>         0.0317
     44 H13        22.6782  -23.0134   10.6558 H       1  <0>         0.0272
     45 H14        23.4430  -24.2064    9.5522 H       1  <0>         0.0272
     46 H15        20.3864  -25.6316   12.1617 H       1  <0>         0.0814
     47 H16        21.0486  -23.9911   12.5389 H       1  <0>         0.0814
     48 H17        20.3328  -22.2098   10.1662 H       1  <0>         0.0817
     49 H18        19.3219  -23.2050    9.0514 H       1  <0>         0.0817
     50 H19        21.1934  -20.1798   10.4846 H       1  <0>         0.0465
     51 H20        21.4404  -18.7550   11.5709 H       1  <0>         0.0465
     52 H21        22.7439  -23.0571    7.4847 H       1  <0>         0.0570
     53 H22        21.0389  -22.4950    7.3016 H       1  <0>         0.0570
     54 H23        21.1935  -24.6262    8.5151 H       1  <0>         0.0375
     55 H24        22.3811  -13.2969    9.5160 H       1  <0>         0.1438
     56 H25        23.2037  -14.5623    8.8928 H       1  <0>         0.1438
     57 H26        19.3236  -24.8730   10.4551 H       1  <0>         0.2013
     58 H27        19.2304  -23.5563   11.4793 H       1  <0>         0.2013
     59 H28        22.3399  -16.1192    2.2908 H       1  <0>         0.2114
@<TRIPOS>BOND
     1     1     9    1
     2     2    21    1
     3     3    21    1
     4     4    13   ar
     5     4    23   ar
     6     5     6    1
     7     5     7    1
     8     6    20    1
     9     7    27    1
    10     8    20    1
    11     8    27    1
    12     9    28    1
    13    10    20    1
    14    10    31    1
    15    11    12    3
    16    11    14    1
    17    12    21    1
    18    13    16   ar
    19    13    31    1
    20    14    15   ar
    21    14    23   ar
    22    15    16   ar
    23    15    24    1
    24    16    28    1
    25    17    18    1
    26    17    19    1
    27    17    25    2
    28    18    22    1
    29    18    26    2
    30    19    24    2
    31    19    28    1
    32    21    29    1
    33    25    30    1
    34    26    30    1
    35     1    32    1
    36     1    33    1
    37     1    34    1
    38     2    35    1
    39     2    36    1
    40     2    37    1
    41     3    38    1
    42     3    39    1
    43     3    40    1
    44     4    41    1
    45     5    42    1
    46     5    43    1
    47     6    44    1
    48     6    45    1
    49     7    46    1
    50     7    47    1
    51     8    48    1
    52     8    49    1
    53     9    50    1
    54     9    51    1
    55    10    52    1
    56    10    53    1
    57    20    54    1
    58    22    55    1
    59    22    56    1
    60    27    57    1
    61    27    58    1
    62    29    59    1
@<TRIPOS>SUBSTRUCTURE
     1 <0>         1 TEMP              0 ****  ****    0 ROOT

