
##########                                Name:        SUB_201_1J4H
##########                    Molecular_Weight:             476.618
##########                DOCK_Rotatable_Bonds:                  10
##########                       Formal_Charge:         0.000399947
##########                     HBond_Acceptors:                   9
##########                        HBond_Donors:                   1
##########                         Heavy_Atoms:                  32
##########                            HA_RMSDs:               0.666
##########                            HA_RMSDh:               0.666
##########                            HA_RMSDm:               0.655
##########                          Grid_Score:          -53.105335
##########                     Grid_vdw_energy:          -51.813988
##########                      Grid_es_energy:           -1.291348
##########           Internal_energy_repulsive:           28.151226

@<TRIPOS>MOLECULE
SUB_201_1J4H
 60 62 1 0 0
SMALL
USER_CHARGES


@<TRIPOS>ATOM
      1 C1        -31.7376   44.7577   33.7779 C.3     1  <0>        -0.0410
      2 C2        -32.9440   32.3754   31.2122 C.3     1  <0>        -0.0397
      3 C3        -35.7665   34.7908   34.5013 C.ar    1  <0>        -0.0617
      4 C4        -34.4122   34.9909   33.9842 C.ar    1  <0>        -0.0615
      5 C5        -36.3820   35.8413   35.3050 C.ar    1  <0>        -0.0615
      6 C6        -33.6812   36.2298   34.2791 C.ar    1  <0>        -0.0585
      7 C7        -35.6448   37.0452   35.5817 C.ar    1  <0>        -0.0585
      8 C8        -35.2530   33.5979   31.0207 C.ar    1  <0>        -0.0570
      9 C9        -33.1773   34.6258   30.0921 C.ar    1  <0>        -0.0570
     10 C10       -36.0108   34.7352   30.5863 C.ar    1  <0>        -0.0348
     11 C11       -33.9662   35.7763   29.6558 C.ar    1  <0>        -0.0348
     12 C12       -37.5485   37.5871   32.1837 C.3     1  <0>         0.0395
     13 C13       -38.8878   38.2278   32.0035 C.3     1  <0>         0.0109
     14 C14       -37.7555   40.0680   30.8804 C.3     1  <0>         0.0222
     15 C15       -31.8723   43.1468   33.8136 C.3     1  <0>         0.0543
     16 C16       -33.5721   38.6137   35.4721 C.3     1  <0>         0.0001
     17 C17       -33.7982   33.5462   30.7668 C.ar    1  <0>        -0.0503
     18 C18       -34.3115   37.2863   35.0990 C.ar    1  <0>        -0.0451
     19 C19       -35.3562   35.8238   29.9036 C.ar    1  <0>         0.1084
     20 C20       -36.2581   39.2407   30.9688 C.3     1  <0>         0.1256
     21 C21       -33.8443   39.3586   33.9896 C.3     1  <0>         0.1126
     22 C22       -35.4507   39.6326   32.0952 C.2     1  <0>         0.2363
     23 C23       -32.9926   40.5773   33.9220 C.2     1  <0>         0.2830
     24 N1        -34.6458   38.7343   32.9116 N.am    1  <0>        -0.3014
     25 N2        -36.6624   37.7188   31.0332 N.pl3   1  <0>        -0.2206
     26 O1        -35.6385   41.0866   32.4382 O.2     1  <0>        -0.2737
     27 O2        -31.7084   40.0740   33.0141 O.2     1  <0>        -0.2629
     28 O3        -35.6950   38.0784   28.4956 O.2     1  <0>        -0.1501
     29 O4        -37.6730   36.4990   29.2999 O.2     1  <0>        -0.1501
     30 O5        -32.8253   42.0235   34.3760 O.3     1  <0>        -0.3141
     31 S1        -38.6852   39.7450   32.2681 S.3     1  <0>        -0.1568
     32 S2        -36.3444   37.1891   29.4246 S.o2    1  <0>         0.0713
     33 H1        -30.8321   45.0381   33.2197 H       1  <0>         0.0252
     34 H2        -32.6208   45.1884   33.2836 H       1  <0>         0.0252
     35 H3        -31.6682   45.1425   34.8060 H       1  <0>         0.0252
     36 H4        -32.9096   31.6208   30.4126 H       1  <0>         0.0278
     37 H5        -31.9244   32.7270   31.4284 H       1  <0>         0.0278
     38 H6        -33.3781   31.9290   32.1190 H       1  <0>         0.0278
     39 H7        -36.3032   33.8776   34.2907 H       1  <0>         0.0618
     40 H8        -33.9480   34.2234   33.3826 H       1  <0>         0.0618
     41 H9        -37.3835   35.7160   35.6893 H       1  <0>         0.0618
     42 H10       -32.6811   36.3696   33.8962 H       1  <0>         0.0620
     43 H11       -36.1170   37.8076   36.1834 H       1  <0>         0.0620
     44 H12       -35.7435   32.7824   31.5314 H       1  <0>         0.0621
     45 H13       -32.1151   34.5987   29.8991 H       1  <0>         0.0621
     46 H14       -37.0741   34.7765   30.7709 H       1  <0>         0.0637
     47 H15       -33.4840   36.5943   29.1413 H       1  <0>         0.0637
     48 H16       -37.0582   38.0644   33.0448 H       1  <0>         0.0486
     49 H17       -37.7085   36.5142   32.3663 H       1  <0>         0.0486
     50 H18       -39.2612   38.0607   30.9824 H       1  <0>         0.0392
     51 H19       -39.6157   37.8062   32.7125 H       1  <0>         0.0392
     52 H20       -37.5688   41.1499   30.8125 H       1  <0>         0.0400
     53 H21       -38.3046   39.7301   29.9891 H       1  <0>         0.0400
     54 H22       -31.9291   42.9309   32.7364 H       1  <0>         0.0563
     55 H23       -30.9349   42.8829   34.3252 H       1  <0>         0.0563
     56 H24       -33.9961   39.1461   36.3362 H       1  <0>         0.0336
     57 H25       -32.5109   38.4883   35.7330 H       1  <0>         0.0336
     58 H26       -35.6196   39.4765   30.1047 H       1  <0>         0.0618
     59 H27       -34.7831   39.5812   33.4614 H       1  <0>         0.0606
     60 H28       -34.6348   37.7471   32.7527 H       1  <0>         0.1495
@<TRIPOS>BOND
     1     1    15    1
     2     2    17    1
     3     3     4   ar
     4     3     5   ar
     5     4     6   ar
     6     5     7   ar
     7     6    18   ar
     8     7    18   ar
     9     8    10   ar
    10     8    17   ar
    11     9    11   ar
    12     9    17   ar
    13    10    19   ar
    14    11    19   ar
    15    12    13    1
    16    12    25    1
    17    13    31    1
    18    14    20    1
    19    14    31    1
    20    15    30    1
    21    16    18    1
    22    16    21    1
    23    19    32    1
    24    20    22    1
    25    20    25    1
    26    21    23    1
    27    21    24    1
    28    22    24   am
    29    22    26    2
    30    23    27    2
    31    23    30    1
    32    25    32    1
    33    28    32    2
    34    29    32    2
    35     1    33    1
    36     1    34    1
    37     1    35    1
    38     2    36    1
    39     2    37    1
    40     2    38    1
    41     3    39    1
    42     4    40    1
    43     5    41    1
    44     6    42    1
    45     7    43    1
    46     8    44    1
    47     9    45    1
    48    10    46    1
    49    11    47    1
    50    12    48    1
    51    12    49    1
    52    13    50    1
    53    13    51    1
    54    14    52    1
    55    14    53    1
    56    15    54    1
    57    15    55    1
    58    16    56    1
    59    16    57    1
    60    20    58    1
    61    21    59    1
    62    24    60    1
@<TRIPOS>SUBSTRUCTURE
     1 <0>         1 TEMP              0 ****  ****    0 ROOT

