
##########                                Name:        SUB_201_1J4H
##########                    Molecular_Weight:             476.618
##########                DOCK_Rotatable_Bonds:                  10
##########                       Formal_Charge:         0.000399947
##########                     HBond_Acceptors:                   9
##########                        HBond_Donors:                   1
##########                         Heavy_Atoms:                  32
##########                            HA_RMSDs:               0.831
##########                            HA_RMSDh:               0.801
##########                            HA_RMSDm:               0.704
##########                          Grid_Score:          -50.118156
##########                     Grid_vdw_energy:          -50.081760
##########                      Grid_es_energy:           -0.036395
##########           Internal_energy_repulsive:           29.022068

@<TRIPOS>MOLECULE
SUB_201_1J4H
 60 62 1 0 0
SMALL
USER_CHARGES


@<TRIPOS>ATOM
      1 C1        -30.6077   44.5051   34.2504 C.3     1  <0>        -0.0410
      2 C2        -33.0019   32.3232   30.9056 C.3     1  <0>        -0.0397
      3 C3        -33.6287   34.7502   33.9667 C.ar    1  <0>        -0.0617
      4 C4        -32.4266   35.5457   33.7142 C.ar    1  <0>        -0.0615
      5 C5        -34.7629   35.3719   34.6414 C.ar    1  <0>        -0.0615
      6 C6        -32.3621   36.9487   34.1431 C.ar    1  <0>        -0.0585
      7 C7        -34.6747   36.7473   35.0536 C.ar    1  <0>        -0.0585
      8 C8        -35.3172   33.5138   30.6146 C.ar    1  <0>        -0.0570
      9 C9        -33.1881   34.7051   30.0898 C.ar    1  <0>        -0.0570
     10 C10       -36.0616   34.6860   30.2562 C.ar    1  <0>        -0.0348
     11 C11       -33.9636   35.8899   29.7277 C.ar    1  <0>        -0.0348
     12 C12       -37.4064   37.4674   32.2561 C.3     1  <0>         0.0395
     13 C13       -38.8311   37.9156   32.1781 C.3     1  <0>         0.0109
     14 C14       -38.0457   39.9089   31.0206 C.3     1  <0>         0.0222
     15 C15       -31.1908   43.0021   34.1266 C.3     1  <0>         0.0543
     16 C16       -33.4942   39.0481   35.3383 C.3     1  <0>         0.0001
     17 C17       -33.8420   33.5281   30.5296 C.ar    1  <0>        -0.0503
     18 C18       -33.5148   37.5683   34.8309 C.ar    1  <0>        -0.0451
     19 C19       -35.3735   35.8736   29.8137 C.ar    1  <0>         0.1084
     20 C20       -36.4452   39.2992   30.9928 C.3     1  <0>         0.1256
     21 C21       -33.8654   39.7240   33.8442 C.3     1  <0>         0.1126
     22 C22       -35.6252   39.7882   32.0712 C.2     1  <0>         0.2363
     23 C23       -33.1173   41.0044   33.7180 C.2     1  <0>         0.2830
     24 N1        -34.6423   39.0054   32.8078 N.am    1  <0>        -0.3014
     25 N2        -36.6279   37.7351   31.0525 N.pl3   1  <0>        -0.2206
     26 O1        -35.9973   41.1935   32.4632 O.2     1  <0>        -0.2737
     27 O2        -32.8549   41.1139   32.0914 O.2     1  <0>        -0.2629
     28 O3        -35.7053   38.1936   28.5142 O.2     1  <0>        -0.1501
     29 O4        -37.6911   36.6085   29.2878 O.2     1  <0>        -0.1501
     30 O5        -32.4896   42.1753   34.4669 O.3     1  <0>        -0.3141
     31 S1        -38.8244   39.4432   32.4599 S.3     1  <0>        -0.1568
     32 S2        -36.3499   37.2732   29.4159 S.o2    1  <0>         0.0713
     33 H1        -29.5901   44.5397   33.8340 H       1  <0>         0.0252
     34 H2        -31.2558   45.1968   33.6922 H       1  <0>         0.0252
     35 H3        -30.5806   44.8016   35.3094 H       1  <0>         0.0252
     36 H4        -32.8489   31.6911   30.0185 H       1  <0>         0.0278
     37 H5        -32.0272   32.6609   31.2875 H       1  <0>         0.0278
     38 H6        -33.5201   31.7436   31.6837 H       1  <0>         0.0278
     39 H7        -33.6755   33.7164   33.6576 H       1  <0>         0.0618
     40 H8        -31.5827   35.0987   33.2098 H       1  <0>         0.0618
     41 H9        -35.6618   34.8039   34.8301 H       1  <0>         0.0618
     42 H10       -31.4709   37.5291   33.9555 H       1  <0>         0.0620
     43 H11       -35.5236   37.1864   35.5565 H       1  <0>         0.0620
     44 H12       -35.8326   32.6243   30.9453 H       1  <0>         0.0621
     45 H13       -32.1104   34.7271   30.0217 H       1  <0>         0.0621
     46 H14       -37.1398   34.6792   30.3177 H       1  <0>         0.0637
     47 H15       -33.4560   36.7823   29.3926 H       1  <0>         0.0637
     48 H16       -36.9297   37.9993   33.0926 H       1  <0>         0.0486
     49 H17       -37.4024   36.3808   32.4269 H       1  <0>         0.0486
     50 H18       -39.2465   37.7091   31.1806 H       1  <0>         0.0392
     51 H19       -39.4429   37.3882   32.9248 H       1  <0>         0.0392
     52 H20       -38.0167   41.0070   30.9628 H       1  <0>         0.0400
     53 H21       -38.6019   39.5072   30.1608 H       1  <0>         0.0400
     54 H22       -31.1518   42.8659   33.0357 H       1  <0>         0.0563
     55 H23       -30.4471   42.4535   34.7234 H       1  <0>         0.0563
     56 H24       -34.2212   39.2692   36.1336 H       1  <0>         0.0336
     57 H25       -32.5322   39.3733   35.7611 H       1  <0>         0.0336
     58 H26       -35.9063   39.6320   30.0934 H       1  <0>         0.0618
     59 H27       -34.8330   39.8546   33.3376 H       1  <0>         0.0606
     60 H28       -34.4994   38.0330   32.6234 H       1  <0>         0.1495
@<TRIPOS>BOND
     1     1    15    1
     2     2    17    1
     3     3     4   ar
     4     3     5   ar
     5     4     6   ar
     6     5     7   ar
     7     6    18   ar
     8     7    18   ar
     9     8    10   ar
    10     8    17   ar
    11     9    11   ar
    12     9    17   ar
    13    10    19   ar
    14    11    19   ar
    15    12    13    1
    16    12    25    1
    17    13    31    1
    18    14    20    1
    19    14    31    1
    20    15    30    1
    21    16    18    1
    22    16    21    1
    23    19    32    1
    24    20    22    1
    25    20    25    1
    26    21    23    1
    27    21    24    1
    28    22    24   am
    29    22    26    2
    30    23    27    2
    31    23    30    1
    32    25    32    1
    33    28    32    2
    34    29    32    2
    35     1    33    1
    36     1    34    1
    37     1    35    1
    38     2    36    1
    39     2    37    1
    40     2    38    1
    41     3    39    1
    42     4    40    1
    43     5    41    1
    44     6    42    1
    45     7    43    1
    46     8    44    1
    47     9    45    1
    48    10    46    1
    49    11    47    1
    50    12    48    1
    51    12    49    1
    52    13    50    1
    53    13    51    1
    54    14    52    1
    55    14    53    1
    56    15    54    1
    57    15    55    1
    58    16    56    1
    59    16    57    1
    60    20    58    1
    61    21    59    1
    62    24    60    1
@<TRIPOS>SUBSTRUCTURE
     1 <0>         1 TEMP              0 ****  ****    0 ROOT

