
##########                                Name:        SUB_201_1J4H
##########                    Molecular_Weight:             476.618
##########                DOCK_Rotatable_Bonds:                  10
##########                       Formal_Charge:         0.000399947
##########                     HBond_Acceptors:                   9
##########                        HBond_Donors:                   1
##########                         Heavy_Atoms:                  32
##########                            HA_RMSDs:               0.485
##########                            HA_RMSDh:               0.485
##########                            HA_RMSDm:               0.483
##########                          Grid_Score:          -50.367599
##########                     Grid_vdw_energy:          -50.154800
##########                      Grid_es_energy:           -0.212800
##########           Internal_energy_repulsive:           28.225613

@<TRIPOS>MOLECULE
SUB_201_1J4H
 60 62 1 0 0
SMALL
USER_CHARGES


@<TRIPOS>ATOM
      1 C1        -31.5081   45.0139   33.8317 C.3     1  <0>        -0.0410
      2 C2        -32.6342   32.3179   31.0474 C.3     1  <0>        -0.0397
      3 C3        -34.7666   34.8121   34.5725 C.ar    1  <0>        -0.0617
      4 C4        -33.5709   35.1899   33.8180 C.ar    1  <0>        -0.0615
      5 C5        -35.3787   35.7875   35.4682 C.ar    1  <0>        -0.0615
      6 C6        -32.9917   36.5309   33.9689 C.ar    1  <0>        -0.0585
      7 C7        -34.7914   37.0940   35.6003 C.ar    1  <0>        -0.0585
      8 C8        -35.0372   33.2610   30.6011 C.ar    1  <0>        -0.0570
      9 C9        -33.0219   34.7084   30.3343 C.ar    1  <0>        -0.0570
     10 C10       -35.8777   34.3629   30.2324 C.ar    1  <0>        -0.0348
     11 C11       -33.8943   35.8196   29.9596 C.ar    1  <0>        -0.0348
     12 C12       -37.2480   37.3848   32.3745 C.3     1  <0>         0.0395
     13 C13       -38.6622   37.8709   32.3542 C.3     1  <0>         0.0109
     14 C14       -37.9023   39.7471   31.0006 C.3     1  <0>         0.0222
     15 C15       -32.0500   43.5416   33.4406 C.3     1  <0>         0.0543
     16 C16       -33.0281   38.9427   35.1089 C.3     1  <0>         0.0001
     17 C17       -33.5716   33.4427   30.6540 C.ar    1  <0>        -0.0503
     18 C18       -33.6162   37.5106   34.8832 C.ar    1  <0>        -0.0451
     19 C19       -35.2952   35.6430   29.9137 C.ar    1  <0>         0.1084
     20 C20       -36.3240   39.0866   30.9166 C.3     1  <0>         0.1256
     21 C21       -33.7155   39.6068   33.7257 C.3     1  <0>         0.1126
     22 C22       -35.4214   39.6279   31.8998 C.2     1  <0>         0.2363
     23 C23       -33.0896   40.9366   33.4920 C.2     1  <0>         0.2830
     24 N1        -34.6238   38.8472   32.8356 N.am    1  <0>        -0.3014
     25 N2        -36.5443   37.5377   31.1066 N.pl3   1  <0>        -0.2206
     26 O1        -35.4935   41.1307   31.9570 O.2     1  <0>        -0.2737
     27 O2        -32.5504   40.8167   31.9358 O.2     1  <0>        -0.2629
     28 O3        -35.8858   37.8167   28.4621 O.2     1  <0>        -0.1501
     29 O4        -37.6918   36.2030   29.5523 O.2     1  <0>        -0.1501
     30 O5        -32.7282   42.2842   34.1078 O.3     1  <0>        -0.3141
     31 S1        -38.5959   39.4142   32.5181 S.3     1  <0>        -0.1568
     32 S2        -36.3880   36.9473   29.4953 S.o2    1  <0>         0.0713
     33 H1        -31.1054   45.5072   32.9348 H       1  <0>         0.0252
     34 H2        -32.3359   45.6129   34.2390 H       1  <0>         0.0252
     35 H3        -30.7142   44.9233   34.5878 H       1  <0>         0.0252
     36 H4        -32.3332   31.7595   30.1488 H       1  <0>         0.0278
     37 H5        -31.7416   32.7380   31.5340 H       1  <0>         0.0278
     38 H6        -33.1477   31.6401   31.7452 H       1  <0>         0.0278
     39 H7        -35.1903   33.8242   34.4676 H       1  <0>         0.0618
     40 H8        -33.1122   34.4789   33.1468 H       1  <0>         0.0618
     41 H9        -36.2658   35.5305   36.0279 H       1  <0>         0.0618
     42 H10       -32.1078   36.8020   33.4107 H       1  <0>         0.0620
     43 H11       -35.2572   37.7989   36.2730 H       1  <0>         0.0620
     44 H12       -35.4735   32.3022   30.8392 H       1  <0>         0.0621
     45 H13       -31.9521   34.8531   30.3675 H       1  <0>         0.0621
     46 H14       -36.9492   34.2337   30.1934 H       1  <0>         0.0637
     47 H15       -33.4657   36.7807   29.7166 H       1  <0>         0.0637
     48 H16       -36.7028   37.9618   33.1358 H       1  <0>         0.0486
     49 H17       -37.2618   36.3142   32.6267 H       1  <0>         0.0486
     50 H18       -39.1482   37.6044   31.4041 H       1  <0>         0.0392
     51 H19       -39.2370   37.4199   33.1766 H       1  <0>         0.0392
     52 H20       -37.8478   40.8364   30.8577 H       1  <0>         0.0400
     53 H21       -38.5249   39.3007   30.2113 H       1  <0>         0.0400
     54 H22       -32.8160   43.8059   32.6966 H       1  <0>         0.0563
     55 H23       -31.1235   43.0862   33.0607 H       1  <0>         0.0563
     56 H24       -33.3386   39.4217   36.0492 H       1  <0>         0.0336
     57 H25       -31.9294   38.9863   35.1399 H       1  <0>         0.0336
     58 H26       -35.8373   39.3346   29.9618 H       1  <0>         0.0618
     59 H27       -34.7672   39.6759   33.4108 H       1  <0>         0.0606
     60 H28       -34.6860   37.8499   32.8751 H       1  <0>         0.1495
@<TRIPOS>BOND
     1     1    15    1
     2     2    17    1
     3     3     4   ar
     4     3     5   ar
     5     4     6   ar
     6     5     7   ar
     7     6    18   ar
     8     7    18   ar
     9     8    10   ar
    10     8    17   ar
    11     9    11   ar
    12     9    17   ar
    13    10    19   ar
    14    11    19   ar
    15    12    13    1
    16    12    25    1
    17    13    31    1
    18    14    20    1
    19    14    31    1
    20    15    30    1
    21    16    18    1
    22    16    21    1
    23    19    32    1
    24    20    22    1
    25    20    25    1
    26    21    23    1
    27    21    24    1
    28    22    24   am
    29    22    26    2
    30    23    27    2
    31    23    30    1
    32    25    32    1
    33    28    32    2
    34    29    32    2
    35     1    33    1
    36     1    34    1
    37     1    35    1
    38     2    36    1
    39     2    37    1
    40     2    38    1
    41     3    39    1
    42     4    40    1
    43     5    41    1
    44     6    42    1
    45     7    43    1
    46     8    44    1
    47     9    45    1
    48    10    46    1
    49    11    47    1
    50    12    48    1
    51    12    49    1
    52    13    50    1
    53    13    51    1
    54    14    52    1
    55    14    53    1
    56    15    54    1
    57    15    55    1
    58    16    56    1
    59    16    57    1
    60    20    58    1
    61    21    59    1
    62    24    60    1
@<TRIPOS>SUBSTRUCTURE
     1 <0>         1 TEMP              0 ****  ****    0 ROOT

