
##########                                Name:        SUB_201_1J4H
##########                    Molecular_Weight:             476.618
##########                DOCK_Rotatable_Bonds:                  10
##########                       Formal_Charge:         0.000399947
##########                     HBond_Acceptors:                   9
##########                        HBond_Donors:                   1
##########                         Heavy_Atoms:                  32
##########                            HA_RMSDs:               0.985
##########                            HA_RMSDh:               0.985
##########                            HA_RMSDm:               0.923
##########                          Grid_Score:          -52.506531
##########                     Grid_vdw_energy:          -51.420708
##########                      Grid_es_energy:           -1.085825
##########           Internal_energy_repulsive:           27.385220

@<TRIPOS>MOLECULE
SUB_201_1J4H
 60 62 1 0 0
SMALL
USER_CHARGES


@<TRIPOS>ATOM
      1 C1        -30.7119   43.8767   33.0299 C.3     1  <0>        -0.0410
      2 C2        -33.2219   32.3276   31.5042 C.3     1  <0>        -0.0397
      3 C3        -35.6970   34.6431   34.9328 C.ar    1  <0>        -0.0617
      4 C4        -34.3178   34.9119   34.5240 C.ar    1  <0>        -0.0615
      5 C5        -36.4711   35.7072   35.5628 C.ar    1  <0>        -0.0615
      6 C6        -33.7203   36.2335   34.7538 C.ar    1  <0>        -0.0585
      7 C7        -35.8628   36.9928   35.7789 C.ar    1  <0>        -0.0585
      8 C8        -35.5083   33.6031   31.4167 C.ar    1  <0>        -0.0570
      9 C9        -33.5061   34.4766   30.2102 C.ar    1  <0>        -0.0570
     10 C10       -36.2763   34.7217   30.9524 C.ar    1  <0>        -0.0348
     11 C11       -34.3048   35.6091   29.7458 C.ar    1  <0>        -0.0348
     12 C12       -37.7481   37.6848   32.3756 C.3     1  <0>         0.0395
     13 C13       -39.0435   38.4114   32.2006 C.3     1  <0>         0.0109
     14 C14       -37.8182   40.1108   30.9593 C.3     1  <0>         0.0222
     15 C15       -31.1767   42.4145   33.5399 C.3     1  <0>         0.0543
     16 C16       -33.9201   38.7212   35.6967 C.3     1  <0>         0.0001
     17 C17       -34.0860   33.4817   31.0350 C.ar    1  <0>        -0.0503
     18 C18       -34.5111   37.3038   35.3979 C.ar    1  <0>        -0.0451
     19 C19       -35.6633   35.7237   30.1158 C.ar    1  <0>         0.1084
     20 C20       -36.3812   39.1825   31.0476 C.3     1  <0>         0.1256
     21 C21       -34.0153   39.2615   34.1075 C.3     1  <0>         0.1126
     22 C22       -35.5143   39.5672   32.1316 C.2     1  <0>         0.2363
     23 C23       -32.9191   40.2436   33.8872 C.2     1  <0>         0.2830
     24 N1        -34.9269   38.6592   33.1072 N.am    1  <0>        -0.3014
     25 N2        -36.8901   37.6985   31.1967 N.pl3   1  <0>        -0.2206
     26 O1        -35.3855   41.0634   32.2399 O.2     1  <0>        -0.2737
     27 O2        -31.7588   39.3336   33.1440 O.2     1  <0>        -0.2629
     28 O3        -36.0476   37.8983   28.5977 O.2     1  <0>        -0.1501
     29 O4        -37.9999   36.3953   29.5894 O.2     1  <0>        -0.1501
     30 O5        -32.4506   41.6782   34.1068 O.3     1  <0>        -0.3141
     31 S1        -38.7260   39.9207   32.3856 S.3     1  <0>        -0.1568
     32 S2        -36.6593   37.0729   29.6078 S.o2    1  <0>         0.0713
     33 H1        -29.6558   43.8404   32.7242 H       1  <0>         0.0252
     34 H2        -31.3312   44.1799   32.1728 H       1  <0>         0.0252
     35 H3        -30.8325   44.6048   33.8455 H       1  <0>         0.0252
     36 H4        -33.2819   31.5045   30.7770 H       1  <0>         0.0278
     37 H5        -32.1781   32.6634   31.5922 H       1  <0>         0.0278
     38 H6        -33.5785   31.9775   32.4842 H       1  <0>         0.0278
     39 H7        -36.1360   33.6698   34.7702 H       1  <0>         0.0618
     40 H8        -33.7365   34.1344   34.0508 H       1  <0>         0.0618
     41 H9        -37.4929   35.5311   35.8646 H       1  <0>         0.0618
     42 H10       -32.7011   36.4240   34.4517 H       1  <0>         0.0620
     43 H11       -36.4517   37.7646   36.2519 H       1  <0>         0.0620
     44 H12       -35.9677   32.8525   32.0427 H       1  <0>         0.0621
     45 H13       -32.4679   34.3978   29.9230 H       1  <0>         0.0621
     46 H14       -37.3159   34.8139   31.2300 H       1  <0>         0.0637
     47 H15       -33.8540   36.3622   29.1165 H       1  <0>         0.0637
     48 H16       -37.1994   38.1651   33.1991 H       1  <0>         0.0486
     49 H17       -37.9781   36.6360   32.6145 H       1  <0>         0.0486
     50 H18       -39.4585   38.2244   31.1992 H       1  <0>         0.0392
     51 H19       -39.7776   38.0770   32.9485 H       1  <0>         0.0392
     52 H20       -37.5574   41.1720   30.8339 H       1  <0>         0.0400
     53 H21       -38.4165   39.7723   30.1006 H       1  <0>         0.0400
     54 H22       -30.9972   41.8232   32.6299 H       1  <0>         0.0563
     55 H23       -30.4767   42.2667   34.3755 H       1  <0>         0.0563
     56 H24       -34.5003   39.3160   36.4176 H       1  <0>         0.0336
     57 H25       -32.9037   38.7136   36.1172 H       1  <0>         0.0336
     58 H26       -35.7540   39.3312   30.1562 H       1  <0>         0.0618
     59 H27       -34.8804   39.5923   33.5139 H       1  <0>         0.0606
     60 H28       -35.1285   37.6797   33.1020 H       1  <0>         0.1495
@<TRIPOS>BOND
     1     1    15    1
     2     2    17    1
     3     3     4   ar
     4     3     5   ar
     5     4     6   ar
     6     5     7   ar
     7     6    18   ar
     8     7    18   ar
     9     8    10   ar
    10     8    17   ar
    11     9    11   ar
    12     9    17   ar
    13    10    19   ar
    14    11    19   ar
    15    12    13    1
    16    12    25    1
    17    13    31    1
    18    14    20    1
    19    14    31    1
    20    15    30    1
    21    16    18    1
    22    16    21    1
    23    19    32    1
    24    20    22    1
    25    20    25    1
    26    21    23    1
    27    21    24    1
    28    22    24   am
    29    22    26    2
    30    23    27    2
    31    23    30    1
    32    25    32    1
    33    28    32    2
    34    29    32    2
    35     1    33    1
    36     1    34    1
    37     1    35    1
    38     2    36    1
    39     2    37    1
    40     2    38    1
    41     3    39    1
    42     4    40    1
    43     5    41    1
    44     6    42    1
    45     7    43    1
    46     8    44    1
    47     9    45    1
    48    10    46    1
    49    11    47    1
    50    12    48    1
    51    12    49    1
    52    13    50    1
    53    13    51    1
    54    14    52    1
    55    14    53    1
    56    15    54    1
    57    15    55    1
    58    16    56    1
    59    16    57    1
    60    20    58    1
    61    21    59    1
    62    24    60    1
@<TRIPOS>SUBSTRUCTURE
     1 <0>         1 TEMP              0 ****  ****    0 ROOT

