
##########                                Name:        SUB_201_1J4H
##########                    Molecular_Weight:             476.618
##########                DOCK_Rotatable_Bonds:                  10
##########                       Formal_Charge:         0.000399947
##########                     HBond_Acceptors:                   9
##########                        HBond_Donors:                   1
##########                         Heavy_Atoms:                  32
##########                            HA_RMSDs:               0.635
##########                            HA_RMSDh:               0.635
##########                            HA_RMSDm:               0.587
##########                          Grid_Score:          -53.428692
##########                     Grid_vdw_energy:          -52.507835
##########                      Grid_es_energy:           -0.920857
##########           Internal_energy_repulsive:           24.456339

@<TRIPOS>MOLECULE
SUB_201_1J4H
 60 62 1 0 0
SMALL
USER_CHARGES


@<TRIPOS>ATOM
      1 C1        -31.8414   45.1287   33.9799 C.3     1  <0>        -0.0410
      2 C2        -33.3749   32.0679   31.3015 C.3     1  <0>        -0.0397
      3 C3        -35.1547   34.9206   34.5664 C.ar    1  <0>        -0.0617
      4 C4        -33.8440   35.1093   33.9437 C.ar    1  <0>        -0.0615
      5 C5        -35.7378   36.0123   35.3388 C.ar    1  <0>        -0.0615
      6 C6        -33.1231   36.3788   34.1029 C.ar    1  <0>        -0.0585
      7 C7        -35.0112   37.2456   35.4818 C.ar    1  <0>        -0.0585
      8 C8        -35.5630   33.5049   31.2027 C.ar    1  <0>        -0.0570
      9 C9        -33.4659   34.2850   30.0976 C.ar    1  <0>        -0.0570
     10 C10       -36.2355   34.6940   30.7664 C.ar    1  <0>        -0.0348
     11 C11       -34.1681   35.4901   29.6608 C.ar    1  <0>        -0.0348
     12 C12       -37.3856   37.6097   32.3517 C.3     1  <0>         0.0395
     13 C13       -38.7603   38.1916   32.2615 C.3     1  <0>         0.0109
     14 C14       -37.8050   40.0148   30.9604 C.3     1  <0>         0.0222
     15 C15       -31.9842   43.5189   34.0298 C.3     1  <0>         0.0543
     16 C16       -32.9875   38.8404   35.1225 C.3     1  <0>         0.0001
     17 C17       -34.1406   33.2993   30.8589 C.ar    1  <0>        -0.0503
     18 C18       -33.7199   37.4774   34.8920 C.ar    1  <0>        -0.0451
     19 C19       -35.5270   35.6848   29.9945 C.ar    1  <0>         0.1084
     20 C20       -36.2732   39.2480   30.9538 C.3     1  <0>         0.1256
     21 C21       -33.6434   39.5937   33.7700 C.3     1  <0>         0.1126
     22 C22       -35.3880   39.7236   31.9856 C.2     1  <0>         0.2363
     23 C23       -33.0271   40.9428   33.6485 C.2     1  <0>         0.2830
     24 N1        -34.5172   38.8898   32.8028 N.am    1  <0>        -0.3014
     25 N2        -36.6082   37.7174   31.1227 N.pl3   1  <0>        -0.2206
     26 O1        -35.5624   41.1982   32.2353 O.2     1  <0>        -0.2737
     27 O2        -31.7223   40.6608   32.6767 O.2     1  <0>        -0.2629
     28 O3        -35.7242   37.9256   28.5382 O.2     1  <0>        -0.1501
     29 O4        -37.7983   36.5516   29.4678 O.2     1  <0>        -0.1501
     30 O5        -33.0970   42.4030   34.0829 O.3     1  <0>        -0.3141
     31 S1        -38.5974   39.7262   32.4381 S.3     1  <0>        -0.1568
     32 S2        -36.4093   37.1218   29.5180 S.o2    1  <0>         0.0713
     33 H1        -30.7762   45.4022   33.9525 H       1  <0>         0.0252
     34 H2        -32.3418   45.5133   33.0790 H       1  <0>         0.0252
     35 H3        -32.3091   45.5660   34.8744 H       1  <0>         0.0252
     36 H4        -33.4678   31.2830   30.5365 H       1  <0>         0.0278
     37 H5        -32.3138   32.3248   31.4359 H       1  <0>         0.0278
     38 H6        -33.7873   31.7024   32.2536 H       1  <0>         0.0278
     39 H7        -35.6835   33.9853   34.4557 H       1  <0>         0.0618
     40 H8        -33.4045   34.3109   33.3641 H       1  <0>         0.0618
     41 H9        -36.7075   35.8954   35.7997 H       1  <0>         0.0618
     42 H10       -32.1551   36.5102   33.6425 H       1  <0>         0.0620
     43 H11       -35.4585   38.0388   36.0624 H       1  <0>         0.0620
     44 H12       -36.0939   32.7627   31.7802 H       1  <0>         0.0621
     45 H13       -32.4268   34.1452   29.8385 H       1  <0>         0.0621
     46 H14       -37.2748   34.8477   31.0164 H       1  <0>         0.0637
     47 H15       -33.6455   36.2356   29.0799 H       1  <0>         0.0637
     48 H16       -36.8424   38.1461   33.1436 H       1  <0>         0.0486
     49 H17       -37.4855   36.5419   32.5963 H       1  <0>         0.0486
     50 H18       -39.2135   37.9614   31.2860 H       1  <0>         0.0392
     51 H19       -39.4064   37.7789   33.0504 H       1  <0>         0.0392
     52 H20       -37.6689   41.0982   30.8272 H       1  <0>         0.0400
     53 H21       -38.4149   39.6141   30.1373 H       1  <0>         0.0400
     54 H22       -31.4796   43.2481   33.0906 H       1  <0>         0.0563
     55 H23       -31.4455   43.3032   34.9643 H       1  <0>         0.0563
     56 H24       -33.2234   39.3306   36.0785 H       1  <0>         0.0336
     57 H25       -31.8894   38.7754   35.1223 H       1  <0>         0.0336
     58 H26       -35.7219   39.4645   30.0269 H       1  <0>         0.0618
     59 H27       -34.6866   39.6745   33.4304 H       1  <0>         0.0606
     60 H28       -34.5095   37.8937   32.7154 H       1  <0>         0.1495
@<TRIPOS>BOND
     1     1    15    1
     2     2    17    1
     3     3     4   ar
     4     3     5   ar
     5     4     6   ar
     6     5     7   ar
     7     6    18   ar
     8     7    18   ar
     9     8    10   ar
    10     8    17   ar
    11     9    11   ar
    12     9    17   ar
    13    10    19   ar
    14    11    19   ar
    15    12    13    1
    16    12    25    1
    17    13    31    1
    18    14    20    1
    19    14    31    1
    20    15    30    1
    21    16    18    1
    22    16    21    1
    23    19    32    1
    24    20    22    1
    25    20    25    1
    26    21    23    1
    27    21    24    1
    28    22    24   am
    29    22    26    2
    30    23    27    2
    31    23    30    1
    32    25    32    1
    33    28    32    2
    34    29    32    2
    35     1    33    1
    36     1    34    1
    37     1    35    1
    38     2    36    1
    39     2    37    1
    40     2    38    1
    41     3    39    1
    42     4    40    1
    43     5    41    1
    44     6    42    1
    45     7    43    1
    46     8    44    1
    47     9    45    1
    48    10    46    1
    49    11    47    1
    50    12    48    1
    51    12    49    1
    52    13    50    1
    53    13    51    1
    54    14    52    1
    55    14    53    1
    56    15    54    1
    57    15    55    1
    58    16    56    1
    59    16    57    1
    60    20    58    1
    61    21    59    1
    62    24    60    1
@<TRIPOS>SUBSTRUCTURE
     1 <0>         1 TEMP              0 ****  ****    0 ROOT

