
##########                                Name:        SUB_201_1J4H
##########                    Molecular_Weight:             476.618
##########                DOCK_Rotatable_Bonds:                  10
##########                       Formal_Charge:         0.000399947
##########                     HBond_Acceptors:                   9
##########                        HBond_Donors:                   1
##########                         Heavy_Atoms:                  32
##########                            HA_RMSDs:               5.055
##########                            HA_RMSDh:               4.627
##########                            HA_RMSDm:               4.165
##########                          Grid_Score:           44.550682
##########                     Grid_vdw_energy:           43.769787
##########                      Grid_es_energy:            0.780896
##########           Internal_energy_repulsive:           50.725769

@<TRIPOS>MOLECULE
SUB_201_1J4H
 60 62 1 0 0
SMALL
USER_CHARGES


@<TRIPOS>ATOM
      1 C1        -29.3950   41.5177   38.8002 C.3     1  <0>        -0.0410
      2 C2        -35.2073   37.3797   28.7869 C.3     1  <0>        -0.0397
      3 C3        -32.6975   34.3405   31.4562 C.ar    1  <0>        -0.0617
      4 C4        -33.1093   35.7418   31.5473 C.ar    1  <0>        -0.0615
      5 C5        -31.5361   33.8909   32.2161 C.ar    1  <0>        -0.0615
      6 C6        -32.3567   36.6830   32.3865 C.ar    1  <0>        -0.0585
      7 C7        -30.8141   34.8325   33.0296 C.ar    1  <0>        -0.0585
      8 C8        -36.1451   35.7217   30.5854 C.ar    1  <0>        -0.0570
      9 C9        -35.6292   38.0918   31.1719 C.ar    1  <0>        -0.0570
     10 C10       -36.5584   35.4771   31.9366 C.ar    1  <0>        -0.0348
     11 C11       -36.0554   37.8240   32.5441 C.ar    1  <0>        -0.0348
     12 C12       -34.6542   34.3617   35.2302 C.3     1  <0>         0.0395
     13 C13       -35.0462   33.5327   36.4117 C.3     1  <0>         0.0109
     14 C14       -35.4037   35.6078   37.6348 C.3     1  <0>         0.0222
     15 C15       -30.0218   40.7590   37.5172 C.3     1  <0>         0.0543
     16 C16       -30.3187   37.1803   34.0347 C.3     1  <0>         0.0001
     17 C17       -35.6670   37.0649   30.1970 C.ar    1  <0>        -0.0503
     18 C18       -31.1779   36.2190   33.1486 C.ar    1  <0>        -0.0451
     19 C19       -36.5085   36.5377   32.9125 C.ar    1  <0>         0.1084
     20 C20       -35.0953   36.5283   36.2235 C.3     1  <0>         0.1256
     21 C21       -31.5940   37.6534   35.0229 C.3     1  <0>         0.1126
     22 C22       -33.7366   36.9969   36.1286 C.2     1  <0>         0.2363
     23 C23       -31.1459   38.8230   35.8268 C.2     1  <0>         0.2830
     24 N1        -32.9575   37.0875   34.9013 N.am    1  <0>        -0.3014
     25 N2        -35.4686   35.5563   35.0405 N.pl3   1  <0>        -0.2206
     26 O1        -33.1402   37.2597   37.4859 O.2     1  <0>        -0.2737
     27 O2        -31.9399   40.0819   35.1117 O.2     1  <0>        -0.2629
     28 O3        -37.5979   37.2671   35.2496 O.2     1  <0>        -0.1501
     29 O4        -37.5641   34.7793   34.3202 O.2     1  <0>        -0.1501
     30 O5        -30.2517   39.2994   36.9665 O.3     1  <0>        -0.3141
     31 S1        -34.4190   34.2205   37.6552 S.3     1  <0>        -0.1568
     32 S2        -37.0072   36.1558   34.5483 S.o2    1  <0>         0.0713
     33 H1        -29.4987   42.6051   38.6705 H       1  <0>         0.0252
     34 H2        -29.9300   41.2043   39.7087 H       1  <0>         0.0252
     35 H3        -28.3299   41.2597   38.8942 H       1  <0>         0.0252
     36 H4        -36.0632   37.7296   28.1912 H       1  <0>         0.0278
     37 H5        -34.4377   38.1650   28.8191 H       1  <0>         0.0278
     38 H6        -34.7872   36.4728   28.3275 H       1  <0>         0.0278
     39 H7        -33.2460   33.6483   30.8346 H       1  <0>         0.0618
     40 H8        -33.9712   36.0855   30.9946 H       1  <0>         0.0618
     41 H9        -31.2208   32.8591   32.1683 H       1  <0>         0.0618
     42 H10       -32.6650   37.7163   32.4470 H       1  <0>         0.0620
     43 H11       -29.9541   34.4799   33.5795 H       1  <0>         0.0620
     44 H12       -36.1832   34.9276   29.8545 H       1  <0>         0.0621
     45 H13       -35.2835   39.0781   30.8998 H       1  <0>         0.0621
     46 H14       -36.9078   34.4964   32.2240 H       1  <0>         0.0637
     47 H15       -36.0239   38.6137   33.2802 H       1  <0>         0.0637
     48 H16       -33.6116   34.6821   35.3728 H       1  <0>         0.0486
     49 H17       -34.7548   33.7373   34.3303 H       1  <0>         0.0486
     50 H18       -36.1413   33.4891   36.5061 H       1  <0>         0.0392
     51 H19       -34.6659   32.5059   36.3058 H       1  <0>         0.0392
     52 H20       -35.1862   36.2202   38.5222 H       1  <0>         0.0400
     53 H21       -36.4606   35.3028   37.6452 H       1  <0>         0.0400
     54 H22       -31.0612   41.1157   37.5670 H       1  <0>         0.0563
     55 H23       -29.3912   41.1735   36.7169 H       1  <0>         0.0563
     56 H24       -29.4864   36.6931   34.5638 H       1  <0>         0.0336
     57 H25       -29.8374   38.0020   33.4841 H       1  <0>         0.0336
     58 H26       -35.6850   37.4569   36.2152 H       1  <0>         0.0618
     59 H27       -32.2707   37.0580   35.6534 H       1  <0>         0.0606
     60 H28       -33.3242   36.7834   34.0220 H       1  <0>         0.1495
@<TRIPOS>BOND
     1     1    15    1
     2     2    17    1
     3     3     4   ar
     4     3     5   ar
     5     4     6   ar
     6     5     7   ar
     7     6    18   ar
     8     7    18   ar
     9     8    10   ar
    10     8    17   ar
    11     9    11   ar
    12     9    17   ar
    13    10    19   ar
    14    11    19   ar
    15    12    13    1
    16    12    25    1
    17    13    31    1
    18    14    20    1
    19    14    31    1
    20    15    30    1
    21    16    18    1
    22    16    21    1
    23    19    32    1
    24    20    22    1
    25    20    25    1
    26    21    23    1
    27    21    24    1
    28    22    24   am
    29    22    26    2
    30    23    27    2
    31    23    30    1
    32    25    32    1
    33    28    32    2
    34    29    32    2
    35     1    33    1
    36     1    34    1
    37     1    35    1
    38     2    36    1
    39     2    37    1
    40     2    38    1
    41     3    39    1
    42     4    40    1
    43     5    41    1
    44     6    42    1
    45     7    43    1
    46     8    44    1
    47     9    45    1
    48    10    46    1
    49    11    47    1
    50    12    48    1
    51    12    49    1
    52    13    50    1
    53    13    51    1
    54    14    52    1
    55    14    53    1
    56    15    54    1
    57    15    55    1
    58    16    56    1
    59    16    57    1
    60    20    58    1
    61    21    59    1
    62    24    60    1
@<TRIPOS>SUBSTRUCTURE
     1 <0>         1 TEMP              0 ****  ****    0 ROOT

