
##########                                Name:        SUB_201_1J4H
##########                    Molecular_Weight:             476.618
##########                DOCK_Rotatable_Bonds:                  10
##########                       Formal_Charge:         0.000399947
##########                     HBond_Acceptors:                   9
##########                        HBond_Donors:                   1
##########                         Heavy_Atoms:                  32
##########                            HA_RMSDs:               0.934
##########                            HA_RMSDh:               0.934
##########                            HA_RMSDm:               0.887
##########                          Grid_Score:          -51.614235
##########                     Grid_vdw_energy:          -50.644444
##########                      Grid_es_energy:           -0.969793
##########           Internal_energy_repulsive:           27.094454

@<TRIPOS>MOLECULE
SUB_201_1J4H
 60 62 1 0 0
SMALL
USER_CHARGES


@<TRIPOS>ATOM
      1 C1        -31.5203   44.2589   33.9552 C.3     1  <0>        -0.0410
      2 C2        -32.7921   31.9491   30.9608 C.3     1  <0>        -0.0397
      3 C3        -35.9284   34.5167   34.5709 C.ar    1  <0>        -0.0617
      4 C4        -34.5842   34.4788   33.9937 C.ar    1  <0>        -0.0615
      5 C5        -36.3416   35.6908   35.3318 C.ar    1  <0>        -0.0615
      6 C6        -33.6622   35.6054   34.1867 C.ar    1  <0>        -0.0585
      7 C7        -35.4196   36.7808   35.5086 C.ar    1  <0>        -0.0585
      8 C8        -35.0866   32.9496   30.1879 C.ar    1  <0>        -0.0570
      9 C9        -33.0979   34.4178   30.5301 C.ar    1  <0>        -0.0570
     10 C10       -35.8685   34.0941   29.8203 C.ar    1  <0>        -0.0348
     11 C11       -33.9102   35.5725   30.1517 C.ar    1  <0>        -0.0348
     12 C12       -37.4254   37.1449   32.1613 C.3     1  <0>         0.0395
     13 C13       -38.7574   37.8102   32.0208 C.3     1  <0>         0.0109
     14 C14       -37.6210   39.6437   30.8909 C.3     1  <0>         0.0222
     15 C15       -31.7217   42.6794   34.2366 C.3     1  <0>         0.0543
     16 C16       -33.1412   38.0052   35.2293 C.3     1  <0>         0.0001
     17 C17       -33.6649   33.1200   30.5534 C.ar    1  <0>        -0.0503
     18 C18       -34.0883   36.7886   34.9639 C.ar    1  <0>        -0.0451
     19 C19       -35.2699   35.4061   29.8065 C.ar    1  <0>         0.1084
     20 C20       -36.1364   38.7903   30.9338 C.3     1  <0>         0.1256
     21 C21       -33.5926   38.8506   33.8479 C.3     1  <0>         0.1126
     22 C22       -35.2954   39.1556   32.0446 C.2     1  <0>         0.2363
     23 C23       -32.8618   40.1471   33.8406 C.2     1  <0>         0.2830
     24 N1        -34.4153   38.2512   32.7718 N.am    1  <0>        -0.3014
     25 N2        -36.5650   37.2748   30.9912 N.pl3   1  <0>        -0.2206
     26 O1        -35.5302   40.5780   32.4789 O.2     1  <0>        -0.2737
     27 O2        -31.4769   39.7797   33.0198 O.2     1  <0>        -0.2629
     28 O3        -35.6920   37.6623   28.4237 O.2     1  <0>        -0.1501
     29 O4        -37.6164   36.0482   29.2871 O.2     1  <0>        -0.1501
     30 O5        -32.8676   41.5986   34.3083 O.3     1  <0>        -0.3141
     31 S1        -38.5225   39.3207   32.2972 S.3     1  <0>        -0.1568
     32 S2        -36.2951   36.7583   29.3696 S.o2    1  <0>         0.0713
     33 H1        -30.4529   44.5127   34.0341 H       1  <0>         0.0252
     34 H2        -31.8807   44.4999   32.9443 H       1  <0>         0.0252
     35 H3        -32.0906   44.8386   34.6959 H       1  <0>         0.0252
     36 H4        -32.3067   31.5254   30.0693 H       1  <0>         0.0278
     37 H5        -32.0232   32.2938   31.6679 H       1  <0>         0.0278
     38 H6        -33.4133   31.1787   31.4410 H       1  <0>         0.0278
     39 H7        -36.6056   33.6863   34.4353 H       1  <0>         0.0618
     40 H8        -34.2686   33.6180   33.4229 H       1  <0>         0.0618
     41 H9        -37.3322   35.7412   35.7592 H       1  <0>         0.0618
     42 H10       -32.6707   35.5695   33.7599 H       1  <0>         0.0620
     43 H11       -35.7438   37.6379   36.0801 H       1  <0>         0.0620
     44 H12       -35.5348   31.9672   30.1976 H       1  <0>         0.0621
     45 H13       -32.0594   34.5548   30.7933 H       1  <0>         0.0621
     46 H14       -36.9079   33.9733   29.5533 H       1  <0>         0.0637
     47 H15       -33.4686   36.5579   30.1360 H       1  <0>         0.0637
     48 H16       -36.9064   37.6040   33.0155 H       1  <0>         0.0486
     49 H17       -37.5993   36.0729   32.3360 H       1  <0>         0.0486
     50 H18       -39.1581   37.6612   31.0072 H       1  <0>         0.0392
     51 H19       -39.4751   37.3930   32.7425 H       1  <0>         0.0392
     52 H20       -37.4174   40.7230   30.8304 H       1  <0>         0.0400
     53 H21       -38.1971   39.3255   30.0095 H       1  <0>         0.0400
     54 H22       -31.1033   42.2564   33.4311 H       1  <0>         0.0563
     55 H23       -31.3224   42.6099   35.2592 H       1  <0>         0.0563
     56 H24       -33.3323   38.5362   36.1735 H       1  <0>         0.0336
     57 H25       -32.0725   37.7502   35.2807 H       1  <0>         0.0336
     58 H26       -35.5149   39.0252   30.0571 H       1  <0>         0.0618
     59 H27       -34.5856   39.0279   33.4089 H       1  <0>         0.0606
     60 H28       -34.3688   37.2759   32.5557 H       1  <0>         0.1495
@<TRIPOS>BOND
     1     1    15    1
     2     2    17    1
     3     3     4   ar
     4     3     5   ar
     5     4     6   ar
     6     5     7   ar
     7     6    18   ar
     8     7    18   ar
     9     8    10   ar
    10     8    17   ar
    11     9    11   ar
    12     9    17   ar
    13    10    19   ar
    14    11    19   ar
    15    12    13    1
    16    12    25    1
    17    13    31    1
    18    14    20    1
    19    14    31    1
    20    15    30    1
    21    16    18    1
    22    16    21    1
    23    19    32    1
    24    20    22    1
    25    20    25    1
    26    21    23    1
    27    21    24    1
    28    22    24   am
    29    22    26    2
    30    23    27    2
    31    23    30    1
    32    25    32    1
    33    28    32    2
    34    29    32    2
    35     1    33    1
    36     1    34    1
    37     1    35    1
    38     2    36    1
    39     2    37    1
    40     2    38    1
    41     3    39    1
    42     4    40    1
    43     5    41    1
    44     6    42    1
    45     7    43    1
    46     8    44    1
    47     9    45    1
    48    10    46    1
    49    11    47    1
    50    12    48    1
    51    12    49    1
    52    13    50    1
    53    13    51    1
    54    14    52    1
    55    14    53    1
    56    15    54    1
    57    15    55    1
    58    16    56    1
    59    16    57    1
    60    20    58    1
    61    21    59    1
    62    24    60    1
@<TRIPOS>SUBSTRUCTURE
     1 <0>         1 TEMP              0 ****  ****    0 ROOT

