
##########                                Name:        SUB_201_1J4H
##########                    Molecular_Weight:             476.618
##########                DOCK_Rotatable_Bonds:                  10
##########                       Formal_Charge:         0.000399947
##########                     HBond_Acceptors:                   9
##########                        HBond_Donors:                   1
##########                         Heavy_Atoms:                  32
##########                            HA_RMSDs:               0.623
##########                            HA_RMSDh:               0.623
##########                            HA_RMSDm:               0.611
##########                          Grid_Score:          -51.274883
##########                     Grid_vdw_energy:          -51.354115
##########                      Grid_es_energy:            0.079232
##########           Internal_energy_repulsive:           27.881834

@<TRIPOS>MOLECULE
SUB_201_1J4H
 60 62 1 0 0
SMALL
USER_CHARGES


@<TRIPOS>ATOM
      1 C1        -31.0718   44.8940   33.6679 C.3     1  <0>        -0.0410
      2 C2        -32.9073   32.1979   31.4625 C.3     1  <0>        -0.0397
      3 C3        -34.8392   34.9452   34.6047 C.ar    1  <0>        -0.0617
      4 C4        -33.4382   35.2124   34.2767 C.ar    1  <0>        -0.0615
      5 C5        -35.6700   36.0327   35.1100 C.ar    1  <0>        -0.0615
      6 C6        -32.8762   36.5562   34.4627 C.ar    1  <0>        -0.0585
      7 C7        -35.0957   37.3400   35.2854 C.ar    1  <0>        -0.0585
      8 C8        -35.1680   33.1931   30.5898 C.ar    1  <0>        -0.0570
      9 C9        -33.1627   34.6457   30.9000 C.ar    1  <0>        -0.0570
     10 C10       -35.9229   34.3292   30.1474 C.ar    1  <0>        -0.0348
     11 C11       -33.9476   35.7919   30.4457 C.ar    1  <0>        -0.0348
     12 C12       -37.3109   37.5246   32.3604 C.3     1  <0>         0.0395
     13 C13       -38.7075   38.0460   32.2410 C.3     1  <0>         0.0109
     14 C14       -37.8179   39.8577   30.8786 C.3     1  <0>         0.0222
     15 C15       -31.4217   43.3165   33.7271 C.3     1  <0>         0.0543
     16 C16       -33.1754   39.0942   35.2286 C.3     1  <0>         0.0001
     17 C17       -33.7517   33.3598   30.9770 C.ar    1  <0>        -0.0503
     18 C18       -33.7248   37.6505   34.9805 C.ar    1  <0>        -0.0451
     19 C19       -35.3023   35.6293   30.0798 C.ar    1  <0>         0.1084
     20 C20       -36.2562   39.1545   30.9090 C.3     1  <0>         0.1256
     21 C21       -33.6872   39.7059   33.7485 C.3     1  <0>         0.1126
     22 C22       -35.3984   39.7036   31.9274 C.2     1  <0>         0.2363
     23 C23       -32.9833   40.9959   33.5137 C.2     1  <0>         0.2830
     24 N1        -34.5314   38.9329   32.8082 N.am    1  <0>        -0.3014
     25 N2        -36.5298   37.6187   31.1327 N.pl3   1  <0>        -0.2206
     26 O1        -35.5996   41.1872   32.0870 O.2     1  <0>        -0.2737
     27 O2        -32.3217   40.7822   32.0159 O.2     1  <0>        -0.2629
     28 O3        -35.6801   37.7851   28.5336 O.2     1  <0>        -0.1501
     29 O4        -37.6368   36.2967   29.5387 O.2     1  <0>        -0.1501
     30 O5        -32.6130   42.3537   34.1012 O.3     1  <0>        -0.3141
     31 S1        -38.6084   39.5915   32.3615 S.3     1  <0>        -0.1568
     32 S2        -36.2954   36.9731   29.5523 S.o2    1  <0>         0.0713
     33 H1        -30.0382   45.0279   33.3158 H       1  <0>         0.0252
     34 H2        -31.7629   45.3969   32.9755 H       1  <0>         0.0252
     35 H3        -31.1763   45.3305   34.6721 H       1  <0>         0.0252
     36 H4        -32.4103   31.7215   30.6046 H       1  <0>         0.0278
     37 H5        -32.1477   32.5664   32.1677 H       1  <0>         0.0278
     38 H6        -33.5511   31.4629   31.9677 H       1  <0>         0.0278
     39 H7        -35.2525   33.9559   34.4745 H       1  <0>         0.0618
     40 H8        -32.8146   34.4171   33.8958 H       1  <0>         0.0618
     41 H9        -36.7082   35.8577   35.3506 H       1  <0>         0.0618
     42 H10       -31.8408   36.7455   34.2208 H       1  <0>         0.0620
     43 H11       -35.7269   38.1294   35.6660 H       1  <0>         0.0620
     44 H12       -35.6326   32.2195   30.6398 H       1  <0>         0.0621
     45 H13       -32.1279   34.7799   31.1785 H       1  <0>         0.0621
     46 H14       -36.9583   34.2110   29.8642 H       1  <0>         0.0637
     47 H15       -33.4894   36.7683   30.3894 H       1  <0>         0.0637
     48 H16       -36.7956   38.1115   33.1350 H       1  <0>         0.0486
     49 H17       -37.3690   36.4634   32.6439 H       1  <0>         0.0486
     50 H18       -39.1440   37.7617   31.2722 H       1  <0>         0.0392
     51 H19       -39.3419   37.6365   33.0410 H       1  <0>         0.0392
     52 H20       -37.7251   40.9401   30.7061 H       1  <0>         0.0400
     53 H21       -38.4051   39.4024   30.0675 H       1  <0>         0.0400
     54 H22       -31.2722   43.0428   32.6722 H       1  <0>         0.0563
     55 H23       -30.6601   42.9735   34.4429 H       1  <0>         0.0563
     56 H24       -33.6030   39.6018   36.1058 H       1  <0>         0.0336
     57 H25       -32.0894   39.1480   35.3949 H       1  <0>         0.0336
     58 H26       -35.7075   39.3592   29.9778 H       1  <0>         0.0618
     59 H27       -34.6970   39.7973   33.3217 H       1  <0>         0.0606
     60 H28       -34.5072   37.9336   32.7795 H       1  <0>         0.1495
@<TRIPOS>BOND
     1     1    15    1
     2     2    17    1
     3     3     4   ar
     4     3     5   ar
     5     4     6   ar
     6     5     7   ar
     7     6    18   ar
     8     7    18   ar
     9     8    10   ar
    10     8    17   ar
    11     9    11   ar
    12     9    17   ar
    13    10    19   ar
    14    11    19   ar
    15    12    13    1
    16    12    25    1
    17    13    31    1
    18    14    20    1
    19    14    31    1
    20    15    30    1
    21    16    18    1
    22    16    21    1
    23    19    32    1
    24    20    22    1
    25    20    25    1
    26    21    23    1
    27    21    24    1
    28    22    24   am
    29    22    26    2
    30    23    27    2
    31    23    30    1
    32    25    32    1
    33    28    32    2
    34    29    32    2
    35     1    33    1
    36     1    34    1
    37     1    35    1
    38     2    36    1
    39     2    37    1
    40     2    38    1
    41     3    39    1
    42     4    40    1
    43     5    41    1
    44     6    42    1
    45     7    43    1
    46     8    44    1
    47     9    45    1
    48    10    46    1
    49    11    47    1
    50    12    48    1
    51    12    49    1
    52    13    50    1
    53    13    51    1
    54    14    52    1
    55    14    53    1
    56    15    54    1
    57    15    55    1
    58    16    56    1
    59    16    57    1
    60    20    58    1
    61    21    59    1
    62    24    60    1
@<TRIPOS>SUBSTRUCTURE
     1 <0>         1 TEMP              0 ****  ****    0 ROOT

