
##########                                Name:          RS1_1_830C
##########                    Molecular_Weight:             425.889
##########                DOCK_Rotatable_Bonds:                   8
##########                       Formal_Charge:         0.000199899
##########                     HBond_Acceptors:                   9
##########                        HBond_Donors:                   2
##########                         Heavy_Atoms:                  28
##########                            HA_RMSDs:               1.097
##########                            HA_RMSDh:               1.097
##########                            HA_RMSDm:               1.008
##########                          Grid_Score:          -54.656193
##########                     Grid_vdw_energy:          -55.203739
##########                      Grid_es_energy:            0.547547
##########           Internal_energy_repulsive:           12.114095

@<TRIPOS>MOLECULE
RS1_1_830C
 48 50 1 0 0
SMALL
USER_CHARGES


@<TRIPOS>ATOM
      1 C1         -6.7096   26.0593   54.7157 C.ar    1  <0>        -0.0294
      2 C2         -7.3429   28.2483   53.8932 C.ar    1  <0>        -0.0294
      3 C3         -9.3443   26.4395   51.0020 C.ar    1  <0>        -0.0298
      4 C4         -7.1724   27.5171   50.8133 C.ar    1  <0>        -0.0298
      5 C5         -6.1228   26.6177   55.8205 C.ar    1  <0>        -0.0344
      6 C6         -6.7784   28.8075   55.0191 C.ar    1  <0>        -0.0344
      7 C7         -9.6694   26.9010   49.7446 C.ar    1  <0>        -0.0409
      8 C8         -7.4993   27.9969   49.5695 C.ar    1  <0>        -0.0409
      9 C9         -2.1380   28.9573   58.1851 C.3     1  <0>        -0.0138
     10 C10        -1.9665   30.3710   56.0840 C.3     1  <0>        -0.0138
     11 C11        -0.6182   28.8144   58.1398 C.3     1  <0>         0.0487
     12 C12        -0.4607   30.0826   56.1194 C.3     1  <0>         0.0487
     13 C13        -4.2347   29.8144   56.9231 C.3     1  <0>         0.0849
     14 C14        -7.3223   26.8569   53.7612 C.ar    1  <0>         0.0832
     15 C15        -8.1072   26.7319   51.5226 C.ar    1  <0>         0.0832
     16 C16        -6.1996   27.9944   55.9898 C.ar    1  <0>         0.0884
     17 C17        -8.7328   27.6729   49.0616 C.ar    1  <0>         0.0411
     18 C18        -2.8250   28.0183   55.8718 C.2     1  <0>         0.2433
     19 C19        -2.7876   29.2570   56.7923 C.3     1  <0>         0.0726
     20 N1         -2.3216   26.8224   56.2069 N.am    1  <0>        -0.1970
     21 O1         -2.3073   25.9141   55.1141 O.3     1  <0>        -0.2952
     22 O2         -3.2999   28.0724   54.7277 O.2     1  <0>        -0.2731
     23 O3         -5.1305   27.7598   58.4432 O.2     1  <0>        -0.1693
     24 O4         -6.6109   29.5876   57.8781 O.2     1  <0>        -0.1693
     25 O5         -0.0601   29.9642   57.4797 O.3     1  <0>        -0.3797
     26 O6         -7.8954   26.1501   52.7572 O.3     1  <0>        -0.3093
     27 S1         -5.5386   28.7403   57.4634 S.o2    1  <0>        -0.0021
     28 Cl1        -9.1679   28.1955   47.4879 Cl      1  <0>        -0.0835
     29 H1         -6.6949   24.9871   54.5869 H       1  <0>         0.0644
     30 H2         -7.7902   28.8698   53.1316 H       1  <0>         0.0644
     31 H3        -10.0530   25.8555   51.5705 H       1  <0>         0.0644
     32 H4         -6.2079   27.7384   51.2458 H       1  <0>         0.0644
     33 H5         -5.6114   26.0006   56.5445 H       1  <0>         0.0637
     34 H6         -6.7851   29.8797   55.1489 H       1  <0>         0.0637
     35 H7        -10.6263   26.6700   49.3002 H       1  <0>         0.0633
     36 H8         -6.8086   28.6092   49.0087 H       1  <0>         0.0633
     37 H9         -2.5579   28.0125   58.5605 H       1  <0>         0.0298
     38 H10        -2.3817   29.7904   58.8608 H       1  <0>         0.0298
     39 H11        -2.1540   31.3262   56.5963 H       1  <0>         0.0298
     40 H12        -2.2886   30.4320   55.0340 H       1  <0>         0.0298
     41 H13        -0.2224   28.7476   59.1639 H       1  <0>         0.0560
     42 H14        -0.3488   27.9031   57.5857 H       1  <0>         0.0560
     43 H15        -0.2469   29.1457   55.5839 H       1  <0>         0.0560
     44 H16         0.0888   30.9051   55.6381 H       1  <0>         0.0560
     45 H17        -4.1846   30.6317   57.6577 H       1  <0>         0.0514
     46 H18        -4.5209   30.1663   55.9210 H       1  <0>         0.0514
     47 H19        -1.9928   26.5946   57.1234 H       1  <0>         0.1822
     48 H20        -2.4635   26.3881   54.3058 H       1  <0>         0.2414
@<TRIPOS>BOND
     1     1     5   ar
     2     1    14   ar
     3     2     6   ar
     4     2    14   ar
     5     3     7   ar
     6     3    15   ar
     7     4     8   ar
     8     4    15   ar
     9     5    16   ar
    10     6    16   ar
    11     7    17   ar
    12     8    17   ar
    13     9    11    1
    14     9    19    1
    15    10    12    1
    16    10    19    1
    17    11    25    1
    18    12    25    1
    19    13    19    1
    20    13    27    1
    21    14    26    1
    22    15    26    1
    23    16    27    1
    24    17    28    1
    25    18    19    1
    26    18    20   am
    27    18    22    2
    28    20    21    1
    29    23    27    2
    30    24    27    2
    31     1    29    1
    32     2    30    1
    33     3    31    1
    34     4    32    1
    35     5    33    1
    36     6    34    1
    37     7    35    1
    38     8    36    1
    39     9    37    1
    40     9    38    1
    41    10    39    1
    42    10    40    1
    43    11    41    1
    44    11    42    1
    45    12    43    1
    46    12    44    1
    47    13    45    1
    48    13    46    1
    49    20    47    1
    50    21    48    1
@<TRIPOS>SUBSTRUCTURE
     1 <0>         1 TEMP              0 ****  ****    0 ROOT

