
##########                                Name:          RS1_1_830C
##########                    Molecular_Weight:             425.889
##########                DOCK_Rotatable_Bonds:                   8
##########                       Formal_Charge:         0.000199899
##########                     HBond_Acceptors:                   9
##########                        HBond_Donors:                   2
##########                         Heavy_Atoms:                  28
##########                            HA_RMSDs:               0.612
##########                            HA_RMSDh:               0.612
##########                            HA_RMSDm:               0.612
##########                          Grid_Score:          -52.752800
##########                     Grid_vdw_energy:          -53.367767
##########                      Grid_es_energy:            0.614968
##########           Internal_energy_repulsive:           14.816946

@<TRIPOS>MOLECULE
RS1_1_830C
 48 50 1 0 0
SMALL
USER_CHARGES


@<TRIPOS>ATOM
      1 C1         -6.5849   25.8967   55.0407 C.ar    1  <0>        -0.0294
      2 C2         -7.1395   28.1369   54.3038 C.ar    1  <0>        -0.0294
      3 C3         -9.2209   26.3565   51.3193 C.ar    1  <0>        -0.0298
      4 C4         -7.1072   27.5582   51.2727 C.ar    1  <0>        -0.0298
      5 C5         -5.9206   26.3938   56.1308 C.ar    1  <0>        -0.0344
      6 C6         -6.4965   28.6354   55.4160 C.ar    1  <0>        -0.0344
      7 C7         -9.5059   26.8326   50.0576 C.ar    1  <0>        -0.0409
      8 C8         -7.3957   28.0520   50.0249 C.ar    1  <0>        -0.0409
      9 C9         -2.1861   27.3854   58.6987 C.3     1  <0>        -0.0138
     10 C10        -1.0975   29.0353   57.1065 C.3     1  <0>        -0.0138
     11 C11        -0.7981   26.7961   58.9405 C.3     1  <0>         0.0487
     12 C12         0.2191   28.2997   57.3849 C.3     1  <0>         0.0487
     13 C13        -3.5729   29.0552   57.2803 C.3     1  <0>         0.0849
     14 C14        -7.1974   26.7505   54.1360 C.ar    1  <0>         0.0832
     15 C15        -8.0313   26.7035   51.9121 C.ar    1  <0>         0.0832
     16 C16        -5.9178   27.7675   56.3381 C.ar    1  <0>         0.0884
     17 C17        -8.5806   27.6734   49.4442 C.ar    1  <0>         0.0411
     18 C18        -2.4248   27.1362   56.1324 C.2     1  <0>         0.2433
     19 C19        -2.3326   28.1162   57.3217 C.3     1  <0>         0.0726
     20 N1         -2.4732   25.8035   56.2639 N.am    1  <0>        -0.1970
     21 O1         -2.3555   25.1306   55.0178 O.3     1  <0>        -0.2952
     22 O2         -2.4199   27.5359   54.9587 O.2     1  <0>        -0.2731
     23 O3         -5.0901   27.4799   58.8776 O.2     1  <0>        -0.1693
     24 O4         -5.9645   29.5831   58.0627 O.2     1  <0>        -0.1693
     25 O5          0.1886   27.8204   58.7245 O.3     1  <0>        -0.3797
     26 O6         -7.8512   26.1016   53.1422 O.3     1  <0>        -0.3093
     27 S1         -5.1531   28.4380   57.7977 S.o2    1  <0>        -0.0021
     28 Cl1        -8.9623   28.2128   47.8623 Cl      1  <0>        -0.0835
     29 H1         -6.6319   24.8291   54.8844 H       1  <0>         0.0644
     30 H2         -7.5876   28.8011   53.5796 H       1  <0>         0.0644
     31 H3         -9.9237   25.7189   51.8351 H       1  <0>         0.0644
     32 H4         -6.1807   27.8214   51.7613 H       1  <0>         0.0644
     33 H5         -5.4100   25.7319   56.8145 H       1  <0>         0.0637
     34 H6         -6.4414   29.7026   55.5729 H       1  <0>         0.0637
     35 H7        -10.4236   26.5604   49.5573 H       1  <0>         0.0633
     36 H8         -6.7129   28.7167   49.5166 H       1  <0>         0.0633
     37 H9         -2.9152   26.5623   58.7267 H       1  <0>         0.0298
     38 H10        -2.3893   28.1162   59.4954 H       1  <0>         0.0298
     39 H11        -1.1732   29.8928   57.7914 H       1  <0>         0.0298
     40 H12        -1.0935   29.3809   56.0622 H       1  <0>         0.0298
     41 H13        -0.7280   26.4274   59.9745 H       1  <0>         0.0560
     42 H14        -0.6240   25.9623   58.2445 H       1  <0>         0.0560
     43 H15         0.3301   27.4556   56.6883 H       1  <0>         0.0560
     44 H16         1.0669   28.9881   57.2535 H       1  <0>         0.0560
     45 H17        -3.3407   29.9015   57.9436 H       1  <0>         0.0514
     46 H18        -3.6912   29.3632   56.2310 H       1  <0>         0.0514
     47 H19        -2.5802   25.3349   57.1407 H       1  <0>         0.1822
     48 H20        -2.2330   25.7676   54.3238 H       1  <0>         0.2414
@<TRIPOS>BOND
     1     1     5   ar
     2     1    14   ar
     3     2     6   ar
     4     2    14   ar
     5     3     7   ar
     6     3    15   ar
     7     4     8   ar
     8     4    15   ar
     9     5    16   ar
    10     6    16   ar
    11     7    17   ar
    12     8    17   ar
    13     9    11    1
    14     9    19    1
    15    10    12    1
    16    10    19    1
    17    11    25    1
    18    12    25    1
    19    13    19    1
    20    13    27    1
    21    14    26    1
    22    15    26    1
    23    16    27    1
    24    17    28    1
    25    18    19    1
    26    18    20   am
    27    18    22    2
    28    20    21    1
    29    23    27    2
    30    24    27    2
    31     1    29    1
    32     2    30    1
    33     3    31    1
    34     4    32    1
    35     5    33    1
    36     6    34    1
    37     7    35    1
    38     8    36    1
    39     9    37    1
    40     9    38    1
    41    10    39    1
    42    10    40    1
    43    11    41    1
    44    11    42    1
    45    12    43    1
    46    12    44    1
    47    13    45    1
    48    13    46    1
    49    20    47    1
    50    21    48    1
@<TRIPOS>SUBSTRUCTURE
     1 <0>         1 TEMP              0 ****  ****    0 ROOT

