
##########                                Name:          RS1_1_830C
##########                    Molecular_Weight:             425.889
##########                DOCK_Rotatable_Bonds:                   8
##########                       Formal_Charge:         0.000199899
##########                     HBond_Acceptors:                   9
##########                        HBond_Donors:                   2
##########                         Heavy_Atoms:                  28
##########                            HA_RMSDs:               0.757
##########                            HA_RMSDh:               0.757
##########                            HA_RMSDm:               0.731
##########                          Grid_Score:          -55.676815
##########                     Grid_vdw_energy:          -55.600063
##########                      Grid_es_energy:           -0.076752
##########           Internal_energy_repulsive:           13.154958

@<TRIPOS>MOLECULE
RS1_1_830C
 48 50 1 0 0
SMALL
USER_CHARGES


@<TRIPOS>ATOM
      1 C1         -7.0985   25.7783   54.1859 C.ar    1  <0>        -0.0294
      2 C2         -7.5636   27.9700   53.2642 C.ar    1  <0>        -0.0294
      3 C3         -9.6674   26.3157   50.5132 C.ar    1  <0>        -0.0298
      4 C4         -7.4318   27.1948   50.1345 C.ar    1  <0>        -0.0298
      5 C5         -6.5909   26.3397   55.3278 C.ar    1  <0>        -0.0344
      6 C6         -7.0801   28.5336   54.4251 C.ar    1  <0>        -0.0344
      7 C7        -10.0613   26.8248   49.2944 C.ar    1  <0>        -0.0409
      8 C8         -7.8246   27.7219   48.9295 C.ar    1  <0>        -0.0409
      9 C9         -3.0619   28.2388   58.3287 C.3     1  <0>        -0.0138
     10 C10        -2.1506   29.8227   56.5672 C.3     1  <0>        -0.0138
     11 C11        -1.6191   27.9875   58.7619 C.3     1  <0>         0.0487
     12 C12        -0.7535   29.4207   57.0555 C.3     1  <0>         0.0487
     13 C13        -4.5891   29.3623   56.5600 C.3     1  <0>         0.0849
     14 C14        -7.5890   26.5761   53.1634 C.ar    1  <0>         0.0832
     15 C15        -8.3667   26.4865   50.9205 C.ar    1  <0>         0.0832
     16 C16        -6.6253   27.7221   55.4610 C.ar    1  <0>         0.0884
     17 C17        -9.1236   27.5192   48.5344 C.ar    1  <0>         0.0411
     18 C18        -2.9855   27.5702   55.8283 C.2     1  <0>         0.2433
     19 C19        -3.2035   28.7128   56.8431 C.3     1  <0>         0.0726
     20 N1         -2.6620   26.3161   56.1725 N.am    1  <0>        -0.1970
     21 O1         -2.3272   25.5140   55.0483 O.3     1  <0>        -0.2952
     22 O2         -3.0615   27.7630   54.6058 O.2     1  <0>        -0.2731
     23 O3         -5.9071   27.5178   58.0416 O.2     1  <0>        -0.1693
     24 O4         -7.0761   29.4631   57.2042 O.2     1  <0>        -0.1693
     25 O5         -0.8287   29.1482   58.4502 O.3     1  <0>        -0.3797
     26 O6         -8.0983   25.8683   52.1261 O.3     1  <0>        -0.3093
     27 S1         -6.0693   28.4768   56.9729 S.o2    1  <0>        -0.0021
     28 Cl1        -9.6495   28.1041   47.0111 Cl      1  <0>        -0.0835
     29 H1         -7.1169   24.7035   54.0811 H       1  <0>         0.0644
     30 H2         -7.9142   28.5901   52.4524 H       1  <0>         0.0644
     31 H3        -10.3723   25.7895   51.1399 H       1  <0>         0.0644
     32 H4         -6.4159   27.3208   50.4785 H       1  <0>         0.0644
     33 H5         -6.1729   25.7206   56.1078 H       1  <0>         0.0637
     34 H6         -7.0538   29.6080   54.5317 H       1  <0>         0.0637
     35 H7        -11.0717   26.6885   48.9379 H       1  <0>         0.0633
     36 H8         -7.1343   28.2779   48.3125 H       1  <0>         0.0633
     37 H9         -3.6199   27.2974   58.4405 H       1  <0>         0.0298
     38 H10        -3.4808   29.0220   58.9776 H       1  <0>         0.0298
     39 H11        -2.4577   30.7382   57.0942 H       1  <0>         0.0298
     40 H12        -2.1059   30.0039   55.4831 H       1  <0>         0.0298
     41 H13        -1.5860   27.7975   59.8449 H       1  <0>         0.0560
     42 H14        -1.2194   27.1134   58.2270 H       1  <0>         0.0560
     43 H15        -0.4132   28.5236   56.5173 H       1  <0>         0.0560
     44 H16        -0.0433   30.2406   56.8726 H       1  <0>         0.0560
     45 H17        -4.6163   30.2957   57.1414 H       1  <0>         0.0514
     46 H18        -4.6296   29.5409   55.4754 H       1  <0>         0.0514
     47 H19        -2.6568   25.9821   57.1150 H       1  <0>         0.1822
     48 H20        -2.4172   26.0276   54.2542 H       1  <0>         0.2414
@<TRIPOS>BOND
     1     1     5   ar
     2     1    14   ar
     3     2     6   ar
     4     2    14   ar
     5     3     7   ar
     6     3    15   ar
     7     4     8   ar
     8     4    15   ar
     9     5    16   ar
    10     6    16   ar
    11     7    17   ar
    12     8    17   ar
    13     9    11    1
    14     9    19    1
    15    10    12    1
    16    10    19    1
    17    11    25    1
    18    12    25    1
    19    13    19    1
    20    13    27    1
    21    14    26    1
    22    15    26    1
    23    16    27    1
    24    17    28    1
    25    18    19    1
    26    18    20   am
    27    18    22    2
    28    20    21    1
    29    23    27    2
    30    24    27    2
    31     1    29    1
    32     2    30    1
    33     3    31    1
    34     4    32    1
    35     5    33    1
    36     6    34    1
    37     7    35    1
    38     8    36    1
    39     9    37    1
    40     9    38    1
    41    10    39    1
    42    10    40    1
    43    11    41    1
    44    11    42    1
    45    12    43    1
    46    12    44    1
    47    13    45    1
    48    13    46    1
    49    20    47    1
    50    21    48    1
@<TRIPOS>SUBSTRUCTURE
     1 <0>         1 TEMP              0 ****  ****    0 ROOT

