
##########                                Name:          RS1_1_830C
##########                    Molecular_Weight:             425.889
##########                DOCK_Rotatable_Bonds:                   8
##########                       Formal_Charge:         0.000199899
##########                     HBond_Acceptors:                   9
##########                        HBond_Donors:                   2
##########                         Heavy_Atoms:                  28
##########                            HA_RMSDs:               0.598
##########                            HA_RMSDh:               0.598
##########                            HA_RMSDm:               0.598
##########                          Grid_Score:          -53.815628
##########                     Grid_vdw_energy:          -54.147934
##########                      Grid_es_energy:            0.332308
##########           Internal_energy_repulsive:           12.310545

@<TRIPOS>MOLECULE
RS1_1_830C
 48 50 1 0 0
SMALL
USER_CHARGES


@<TRIPOS>ATOM
      1 C1         -6.4247   25.7787   54.5809 C.ar    1  <0>        -0.0294
      2 C2         -7.3504   27.9224   53.9355 C.ar    1  <0>        -0.0294
      3 C3         -9.4787   26.1779   51.2323 C.ar    1  <0>        -0.0298
      4 C4         -7.3521   27.2482   50.7362 C.ar    1  <0>        -0.0298
      5 C5         -5.8062   26.3448   55.6643 C.ar    1  <0>        -0.0344
      6 C6         -6.7523   28.4860   55.0417 C.ar    1  <0>        -0.0344
      7 C7         -9.9909   26.6756   50.0534 C.ar    1  <0>        -0.0409
      8 C8         -7.8637   27.7638   49.5715 C.ar    1  <0>        -0.0409
      9 C9         -2.1650   28.2022   58.6789 C.3     1  <0>        -0.0138
     10 C10        -1.3017   29.2245   56.5220 C.3     1  <0>        -0.0138
     11 C11        -0.7201   27.8384   59.0135 C.3     1  <0>         0.0487
     12 C12         0.0870   28.7334   56.9489 C.3     1  <0>         0.0487
     13 C13        -3.7587   29.1380   56.8602 C.3     1  <0>         0.0849
     14 C14        -7.1967   26.5492   53.7248 C.ar    1  <0>         0.0832
     15 C15        -8.1729   26.4491   51.5615 C.ar    1  <0>         0.0832
     16 C16        -6.0108   27.6957   55.9158 C.ar    1  <0>         0.0884
     17 C17        -9.1644   27.4607   49.2535 C.ar    1  <0>         0.0411
     18 C18        -2.4936   27.0150   56.4013 C.2     1  <0>         0.2433
     19 C19        -2.4379   28.3662   57.1458 C.3     1  <0>         0.0726
     20 N1         -2.3548   25.8246   57.0010 N.am    1  <0>        -0.1970
     21 O1         -2.2482   24.7568   56.0695 O.3     1  <0>        -0.2952
     22 O2         -2.6347   26.9559   55.1708 O.2     1  <0>        -0.2731
     23 O3         -5.2018   27.5076   58.4706 O.2     1  <0>        -0.1693
     24 O4         -6.1874   29.5389   57.6022 O.2     1  <0>        -0.1693
     25 O5          0.1594   28.7770   58.3694 O.3     1  <0>        -0.3797
     26 O6         -7.7775   25.8324   52.7323 O.3     1  <0>        -0.3093
     27 S1         -5.3066   28.4388   57.3706 S.o2    1  <0>        -0.0021
     28 Cl1        -9.8336   28.0288   47.7809 Cl      1  <0>        -0.0835
     29 H1         -6.3098   24.7216   54.3917 H       1  <0>         0.0644
     30 H2         -7.9237   28.5269   53.2482 H       1  <0>         0.0644
     31 H3        -10.0960   25.5825   51.8886 H       1  <0>         0.0644
     32 H4         -6.3300   27.4522   51.0190 H       1  <0>         0.0644
     33 H5         -5.1731   25.7534   56.3092 H       1  <0>         0.0637
     34 H6         -6.8592   29.5439   55.2313 H       1  <0>         0.0637
     35 H7        -11.0074   26.4622   49.7575 H       1  <0>         0.0633
     36 H8         -7.2627   28.3875   48.9263 H       1  <0>         0.0633
     37 H9         -2.8147   27.3989   59.0564 H       1  <0>         0.0298
     38 H10        -2.3981   29.1583   59.1704 H       1  <0>         0.0298
     39 H11        -1.4243   30.2659   56.8545 H       1  <0>         0.0298
     40 H12        -1.3753   29.1631   55.4262 H       1  <0>         0.0298
     41 H13        -0.5711   27.8795   60.1026 H       1  <0>         0.0560
     42 H14        -0.5022   26.8216   58.6549 H       1  <0>         0.0560
     43 H15         0.2430   27.7025   56.5981 H       1  <0>         0.0560
     44 H16         0.8625   29.3819   56.5150 H       1  <0>         0.0560
     45 H17        -3.6701   30.1031   57.3807 H       1  <0>         0.0514
     46 H18        -3.8180   29.2532   55.7678 H       1  <0>         0.0514
     47 H19        -2.3290   25.7016   57.9930 H       1  <0>         0.1822
     48 H20        -2.5174   25.0580   55.2097 H       1  <0>         0.2414
@<TRIPOS>BOND
     1     1     5   ar
     2     1    14   ar
     3     2     6   ar
     4     2    14   ar
     5     3     7   ar
     6     3    15   ar
     7     4     8   ar
     8     4    15   ar
     9     5    16   ar
    10     6    16   ar
    11     7    17   ar
    12     8    17   ar
    13     9    11    1
    14     9    19    1
    15    10    12    1
    16    10    19    1
    17    11    25    1
    18    12    25    1
    19    13    19    1
    20    13    27    1
    21    14    26    1
    22    15    26    1
    23    16    27    1
    24    17    28    1
    25    18    19    1
    26    18    20   am
    27    18    22    2
    28    20    21    1
    29    23    27    2
    30    24    27    2
    31     1    29    1
    32     2    30    1
    33     3    31    1
    34     4    32    1
    35     5    33    1
    36     6    34    1
    37     7    35    1
    38     8    36    1
    39     9    37    1
    40     9    38    1
    41    10    39    1
    42    10    40    1
    43    11    41    1
    44    11    42    1
    45    12    43    1
    46    12    44    1
    47    13    45    1
    48    13    46    1
    49    20    47    1
    50    21    48    1
@<TRIPOS>SUBSTRUCTURE
     1 <0>         1 TEMP              0 ****  ****    0 ROOT

