
##########                                Name:          RS1_1_830C
##########                    Molecular_Weight:             425.889
##########                DOCK_Rotatable_Bonds:                   8
##########                       Formal_Charge:         0.000199899
##########                     HBond_Acceptors:                   9
##########                        HBond_Donors:                   2
##########                         Heavy_Atoms:                  28
##########                            HA_RMSDs:               1.023
##########                            HA_RMSDh:               1.023
##########                            HA_RMSDm:               1.008
##########                          Grid_Score:          -46.386902
##########                     Grid_vdw_energy:          -46.305965
##########                      Grid_es_energy:           -0.080935
##########           Internal_energy_repulsive:           14.964683

@<TRIPOS>MOLECULE
RS1_1_830C
 48 50 1 0 0
SMALL
USER_CHARGES


@<TRIPOS>ATOM
      1 C1         -6.8569   26.4787   55.1213 C.ar    1  <0>        -0.0294
      2 C2         -7.2654   28.4978   53.8464 C.ar    1  <0>        -0.0294
      3 C3         -9.4096   26.2844   51.3451 C.ar    1  <0>        -0.0298
      4 C4         -7.2167   27.2717   50.9835 C.ar    1  <0>        -0.0298
      5 C5         -6.2596   27.2014   56.1201 C.ar    1  <0>        -0.0344
      6 C6         -6.6910   29.2275   54.8646 C.ar    1  <0>        -0.0344
      7 C7         -9.7270   26.5357   50.0276 C.ar    1  <0>        -0.0409
      8 C8         -7.5356   27.5433   49.6764 C.ar    1  <0>        -0.0409
      9 C9         -2.6025   28.7467   58.5066 C.3     1  <0>        -0.0138
     10 C10        -1.4752   30.1302   56.7017 C.3     1  <0>        -0.0138
     11 C11        -1.2158   28.2432   58.9015 C.3     1  <0>         0.0487
     12 C12        -0.1588   29.4869   57.1548 C.3     1  <0>         0.0487
     13 C13        -3.9559   30.1151   56.7690 C.3     1  <0>         0.0849
     14 C14        -7.3642   27.1117   53.9968 C.ar    1  <0>         0.0832
     15 C15        -8.1661   26.6349   51.8121 C.ar    1  <0>         0.0832
     16 C16        -6.2192   28.5854   56.0063 C.ar    1  <0>         0.0884
     17 C17        -8.7760   27.1637   49.2272 C.ar    1  <0>         0.0411
     18 C18        -2.7223   28.0596   56.0129 C.2     1  <0>         0.2433
     19 C19        -2.7013   29.2292   57.0202 C.3     1  <0>         0.0726
     20 N1         -3.0046   26.7923   56.3444 N.am    1  <0>        -0.1970
     21 O1         -2.7629   25.8854   55.2773 O.3     1  <0>        -0.2952
     22 O2         -2.4339   28.2251   54.8183 O.2     1  <0>        -0.2731
     23 O3         -5.5095   28.8407   58.5847 O.2     1  <0>        -0.1693
     24 O4         -6.3951   30.7069   57.3258 O.2     1  <0>        -0.1693
     25 O5         -0.2398   29.2411   58.5541 O.3     1  <0>        -0.3797
     26 O6         -7.9645   26.2635   53.1271 O.3     1  <0>        -0.3093
     27 S1         -5.5435   29.5604   57.3321 S.o2    1  <0>        -0.0021
     28 Cl1        -9.2026   27.4246   47.5874 Cl      1  <0>        -0.0835
     29 H1         -6.9334   25.4051   55.2107 H       1  <0>         0.0644
     30 H2         -7.6303   28.9850   52.9542 H       1  <0>         0.0644
     31 H3        -10.1290   25.8180   52.0018 H       1  <0>         0.0644
     32 H4         -6.2474   27.5429   51.3750 H       1  <0>         0.0644
     33 H5         -5.8293   26.7058   56.9778 H       1  <0>         0.0637
     34 H6         -6.6066   30.3006   54.7766 H       1  <0>         0.0637
     35 H7        -10.6889   26.2528   49.6262 H       1  <0>         0.0633
     36 H8         -6.8335   28.0395   49.0226 H       1  <0>         0.0633
     37 H9         -3.3167   27.9216   58.6450 H       1  <0>         0.0298
     38 H10        -2.8545   29.5965   59.1579 H       1  <0>         0.0298
     39 H11        -1.5973   31.0892   57.2267 H       1  <0>         0.0298
     40 H12        -1.4313   30.2936   55.6148 H       1  <0>         0.0298
     41 H13        -1.1849   28.0571   59.9852 H       1  <0>         0.0560
     42 H14        -0.9955   27.3082   58.3656 H       1  <0>         0.0560
     43 H15        -0.0012   28.5400   56.6175 H       1  <0>         0.0560
     44 H16         0.6811   30.1648   56.9424 H       1  <0>         0.0560
     45 H17        -3.7650   31.0710   57.2789 H       1  <0>         0.0514
     46 H18        -4.0387   30.2294   55.6781 H       1  <0>         0.0514
     47 H19        -3.3471   26.5157   57.2422 H       1  <0>         0.1822
     48 H20        -2.1035   26.2472   54.6970 H       1  <0>         0.2414
@<TRIPOS>BOND
     1     1     5   ar
     2     1    14   ar
     3     2     6   ar
     4     2    14   ar
     5     3     7   ar
     6     3    15   ar
     7     4     8   ar
     8     4    15   ar
     9     5    16   ar
    10     6    16   ar
    11     7    17   ar
    12     8    17   ar
    13     9    11    1
    14     9    19    1
    15    10    12    1
    16    10    19    1
    17    11    25    1
    18    12    25    1
    19    13    19    1
    20    13    27    1
    21    14    26    1
    22    15    26    1
    23    16    27    1
    24    17    28    1
    25    18    19    1
    26    18    20   am
    27    18    22    2
    28    20    21    1
    29    23    27    2
    30    24    27    2
    31     1    29    1
    32     2    30    1
    33     3    31    1
    34     4    32    1
    35     5    33    1
    36     6    34    1
    37     7    35    1
    38     8    36    1
    39     9    37    1
    40     9    38    1
    41    10    39    1
    42    10    40    1
    43    11    41    1
    44    11    42    1
    45    12    43    1
    46    12    44    1
    47    13    45    1
    48    13    46    1
    49    20    47    1
    50    21    48    1
@<TRIPOS>SUBSTRUCTURE
     1 <0>         1 TEMP              0 ****  ****    0 ROOT

