
##########                                Name:          RS1_1_830C
##########                    Molecular_Weight:             425.889
##########                DOCK_Rotatable_Bonds:                   8
##########                       Formal_Charge:         0.000199899
##########                     HBond_Acceptors:                   9
##########                        HBond_Donors:                   2
##########                         Heavy_Atoms:                  28
##########                            HA_RMSDs:               0.694
##########                            HA_RMSDh:               0.694
##########                            HA_RMSDm:               0.694
##########                          Grid_Score:          -54.073479
##########                     Grid_vdw_energy:          -54.978317
##########                      Grid_es_energy:            0.904839
##########           Internal_energy_repulsive:           16.462242

@<TRIPOS>MOLECULE
RS1_1_830C
 48 50 1 0 0
SMALL
USER_CHARGES


@<TRIPOS>ATOM
      1 C1         -6.4546   26.1063   54.8721 C.ar    1  <0>        -0.0294
      2 C2         -7.1154   28.2959   54.0732 C.ar    1  <0>        -0.0294
      3 C3         -9.0950   26.2973   51.1321 C.ar    1  <0>        -0.0298
      4 C4         -7.1467   27.7523   51.0941 C.ar    1  <0>        -0.0298
      5 C5         -5.8343   26.6636   55.9591 C.ar    1  <0>        -0.0344
      6 C6         -6.5168   28.8539   55.1820 C.ar    1  <0>        -0.0344
      7 C7         -9.4393   26.7451   49.8748 C.ar    1  <0>        -0.0409
      8 C8         -7.4966   28.2171   49.8508 C.ar    1  <0>        -0.0409
      9 C9         -2.0438   28.1775   58.6929 C.3     1  <0>        -0.0138
     10 C10        -1.1891   29.4313   56.6583 C.3     1  <0>        -0.0138
     11 C11        -0.6147   27.6871   58.9155 C.3     1  <0>         0.0487
     12 C12         0.1788   28.8058   56.9574 C.3     1  <0>         0.0487
     13 C13        -3.6340   29.4444   57.0837 C.3     1  <0>         0.0849
     14 C14        -7.0974   26.9048   53.9384 C.ar    1  <0>         0.0832
     15 C15        -7.9565   26.7842   51.7269 C.ar    1  <0>         0.0832
     16 C16        -5.9072   28.0399   56.1329 C.ar    1  <0>         0.0884
     17 C17        -8.6266   27.6993   49.2679 C.ar    1  <0>         0.0411
     18 C18        -2.5232   27.3328   56.2926 C.2     1  <0>         0.2433
     19 C19        -2.3565   28.5644   57.2082 C.3     1  <0>         0.0726
     20 N1         -2.0950   26.1029   56.6085 N.am    1  <0>        -0.1970
     21 O1         -2.1933   25.1973   55.5178 O.3     1  <0>        -0.2952
     22 O2         -3.0408   27.4229   55.1694 O.2     1  <0>        -0.2731
     23 O3         -5.1275   27.8635   58.6976 O.2     1  <0>        -0.1693
     24 O4         -6.0606   29.9055   57.7969 O.2     1  <0>        -0.1693
     25 O5          0.3010   28.6512   58.3667 O.3     1  <0>        -0.3797
     26 O6         -7.7008   26.1989   52.9515 O.3     1  <0>        -0.3093
     27 S1         -5.2015   28.7843   57.5864 S.o2    1  <0>        -0.0021
     28 Cl1        -9.0752   28.2006   47.6910 Cl      1  <0>        -0.0835
     29 H1         -6.4428   25.0344   54.7412 H       1  <0>         0.0644
     30 H2         -7.5868   28.9182   53.3269 H       1  <0>         0.0644
     31 H3         -9.7123   25.5733   51.6430 H       1  <0>         0.0644
     32 H4         -6.2591   28.1241   51.5842 H       1  <0>         0.0644
     33 H5         -5.3000   26.0459   56.6658 H       1  <0>         0.0637
     34 H6         -6.5206   29.9259   55.3137 H       1  <0>         0.0637
     35 H7        -10.3171   26.3655   49.3730 H       1  <0>         0.0633
     36 H8         -6.9025   28.9656   49.3477 H       1  <0>         0.0633
     37 H9         -2.7306   27.3699   58.9863 H       1  <0>         0.0298
     38 H10        -2.1987   29.0698   59.3173 H       1  <0>         0.0298
     39 H11        -1.2337   30.4232   57.1319 H       1  <0>         0.0298
     40 H12        -1.3028   29.5241   55.5681 H       1  <0>         0.0298
     41 H13        -0.4273   27.5707   59.9931 H       1  <0>         0.0560
     42 H14        -0.4744   26.7175   58.4153 H       1  <0>         0.0560
     43 H15         0.2568   27.8248   56.4657 H       1  <0>         0.0560
     44 H16         0.9793   29.4605   56.5824 H       1  <0>         0.0560
     45 H17        -3.4587   30.3321   57.7094 H       1  <0>         0.0514
     46 H18        -3.7328   29.6945   56.0171 H       1  <0>         0.0514
     47 H19        -1.7454   25.8507   57.5107 H       1  <0>         0.1822
     48 H20        -2.2896   25.6851   54.7083 H       1  <0>         0.2414
@<TRIPOS>BOND
     1     1     5   ar
     2     1    14   ar
     3     2     6   ar
     4     2    14   ar
     5     3     7   ar
     6     3    15   ar
     7     4     8   ar
     8     4    15   ar
     9     5    16   ar
    10     6    16   ar
    11     7    17   ar
    12     8    17   ar
    13     9    11    1
    14     9    19    1
    15    10    12    1
    16    10    19    1
    17    11    25    1
    18    12    25    1
    19    13    19    1
    20    13    27    1
    21    14    26    1
    22    15    26    1
    23    16    27    1
    24    17    28    1
    25    18    19    1
    26    18    20   am
    27    18    22    2
    28    20    21    1
    29    23    27    2
    30    24    27    2
    31     1    29    1
    32     2    30    1
    33     3    31    1
    34     4    32    1
    35     5    33    1
    36     6    34    1
    37     7    35    1
    38     8    36    1
    39     9    37    1
    40     9    38    1
    41    10    39    1
    42    10    40    1
    43    11    41    1
    44    11    42    1
    45    12    43    1
    46    12    44    1
    47    13    45    1
    48    13    46    1
    49    20    47    1
    50    21    48    1
@<TRIPOS>SUBSTRUCTURE
     1 <0>         1 TEMP              0 ****  ****    0 ROOT

