
##########                                Name:          RS1_1_830C
##########                    Molecular_Weight:             425.889
##########                DOCK_Rotatable_Bonds:                   8
##########                       Formal_Charge:         0.000199899
##########                     HBond_Acceptors:                   9
##########                        HBond_Donors:                   2
##########                         Heavy_Atoms:                  28
##########                            HA_RMSDs:               7.829
##########                            HA_RMSDh:               7.812
##########                            HA_RMSDm:               6.389
##########                          Grid_Score:          -43.142303
##########                     Grid_vdw_energy:          -44.878845
##########                      Grid_es_energy:            1.736541
##########           Internal_energy_repulsive:           18.576397

@<TRIPOS>MOLECULE
RS1_1_830C
 48 50 1 0 0
SMALL
USER_CHARGES


@<TRIPOS>ATOM
      1 C1         -0.9837   24.6005   56.8389 C.ar    1  <0>        -0.0294
      2 C2         -1.3140   26.4187   58.4056 C.ar    1  <0>        -0.0294
      3 C3         -4.8831   26.9824   56.7106 C.ar    1  <0>        -0.0298
      4 C4         -2.8747   28.3410   56.5251 C.ar    1  <0>        -0.0298
      5 C5          0.1852   24.2462   57.4594 C.ar    1  <0>        -0.0344
      6 C6         -0.1536   26.0438   59.0473 C.ar    1  <0>        -0.0344
      7 C7         -5.6480   28.1282   56.6688 C.ar    1  <0>        -0.0409
      8 C8         -3.6307   29.4865   56.5044 C.ar    1  <0>        -0.0409
      9 C9          4.5217   23.0665   57.9432 C.3     1  <0>        -0.0138
     10 C10         5.5049   25.3432   57.4025 C.3     1  <0>        -0.0138
     11 C11         5.6265   22.4532   57.0856 C.3     1  <0>         0.0487
     12 C12         6.5098   24.5999   56.5138 C.3     1  <0>         0.0487
     13 C13         3.3893   25.2736   58.6978 C.3     1  <0>         0.0849
     14 C14        -1.7358   25.6683   57.3043 C.ar    1  <0>         0.0832
     15 C15        -3.5161   27.0872   56.6255 C.ar    1  <0>         0.0832
     16 C16         0.5739   24.9464   58.5946 C.ar    1  <0>         0.0884
     17 C17        -4.9957   29.3545   56.5687 C.ar    1  <0>         0.0411
     18 C18         3.3723   24.6630   56.2595 C.2     1  <0>         0.2433
     19 C19         4.1795   24.5483   57.5703 C.3     1  <0>         0.0726
     20 N1          3.4192   23.7594   55.2710 N.am    1  <0>        -0.1970
     21 O1          2.7405   24.1981   54.1021 O.3     1  <0>        -0.2952
     22 O2          2.6472   25.6414   56.0260 O.2     1  <0>        -0.2731
     23 O3          2.1717   23.0097   59.5504 O.2     1  <0>        -0.1693
     24 O4          1.8474   25.0871   60.7467 O.2     1  <0>        -0.1693
     25 O5          6.7681   23.3283   57.0982 O.3     1  <0>        -0.3797
     26 O6         -2.8853   25.8586   56.6123 O.3     1  <0>        -0.3093
     27 S1          2.0314   24.4464   59.4836 S.o2    1  <0>        -0.0021
     28 Cl1        -5.9890   30.7493   56.4854 Cl      1  <0>        -0.0835
     29 H1         -1.3227   24.0424   55.9787 H       1  <0>         0.0644
     30 H2         -1.8835   27.2712   58.7452 H       1  <0>         0.0644
     31 H3         -5.3524   26.0147   56.8089 H       1  <0>         0.0644
     32 H4         -1.7979   28.3984   56.4651 H       1  <0>         0.0644
     33 H5          0.7914   23.4397   57.0743 H       1  <0>         0.0637
     34 H6          0.1926   26.6029   59.9040 H       1  <0>         0.0637
     35 H7         -6.7259   28.0764   56.7127 H       1  <0>         0.0633
     36 H8         -3.1670   30.4597   56.4397 H       1  <0>         0.0633
     37 H9          3.6119   22.4628   57.8094 H       1  <0>         0.0298
     38 H10         4.8541   23.0472   58.9916 H       1  <0>         0.0298
     39 H11         5.9550   25.4908   58.3954 H       1  <0>         0.0298
     40 H12         5.2766   26.3145   56.9393 H       1  <0>         0.0298
     41 H13         5.9088   21.4712   57.4930 H       1  <0>         0.0560
     42 H14         5.2673   22.3289   56.0533 H       1  <0>         0.0560
     43 H15         6.0914   24.4695   55.5048 H       1  <0>         0.0560
     44 H16         7.4443   25.1759   56.4437 H       1  <0>         0.0560
     45 H17         4.1178   25.4929   59.4924 H       1  <0>         0.0514
     46 H18         2.9737   26.1858   58.2448 H       1  <0>         0.0514
     47 H19         3.8803   22.8754   55.3474 H       1  <0>         0.1822
     48 H20         2.2670   24.9994   54.2923 H       1  <0>         0.2414
@<TRIPOS>BOND
     1     1     5   ar
     2     1    14   ar
     3     2     6   ar
     4     2    14   ar
     5     3     7   ar
     6     3    15   ar
     7     4     8   ar
     8     4    15   ar
     9     5    16   ar
    10     6    16   ar
    11     7    17   ar
    12     8    17   ar
    13     9    11    1
    14     9    19    1
    15    10    12    1
    16    10    19    1
    17    11    25    1
    18    12    25    1
    19    13    19    1
    20    13    27    1
    21    14    26    1
    22    15    26    1
    23    16    27    1
    24    17    28    1
    25    18    19    1
    26    18    20   am
    27    18    22    2
    28    20    21    1
    29    23    27    2
    30    24    27    2
    31     1    29    1
    32     2    30    1
    33     3    31    1
    34     4    32    1
    35     5    33    1
    36     6    34    1
    37     7    35    1
    38     8    36    1
    39     9    37    1
    40     9    38    1
    41    10    39    1
    42    10    40    1
    43    11    41    1
    44    11    42    1
    45    12    43    1
    46    12    44    1
    47    13    45    1
    48    13    46    1
    49    20    47    1
    50    21    48    1
@<TRIPOS>SUBSTRUCTURE
     1 <0>         1 TEMP              0 ****  ****    0 ROOT

