
##########                                Name:          RS1_1_830C
##########                    Molecular_Weight:             425.889
##########                DOCK_Rotatable_Bonds:                   8
##########                       Formal_Charge:         0.000199899
##########                     HBond_Acceptors:                   9
##########                        HBond_Donors:                   2
##########                         Heavy_Atoms:                  28
##########                            HA_RMSDs:               0.764
##########                            HA_RMSDh:               0.764
##########                            HA_RMSDm:               0.764
##########                          Grid_Score:          -59.190269
##########                     Grid_vdw_energy:          -59.676289
##########                      Grid_es_energy:            0.486018
##########           Internal_energy_repulsive:           11.249412

@<TRIPOS>MOLECULE
RS1_1_830C
 48 50 1 0 0
SMALL
USER_CHARGES


@<TRIPOS>ATOM
      1 C1         -6.5044   25.9364   54.3441 C.ar    1  <0>        -0.0294
      2 C2         -7.3217   28.1082   53.6482 C.ar    1  <0>        -0.0294
      3 C3         -9.4826   26.4046   50.9322 C.ar    1  <0>        -0.0298
      4 C4         -7.3010   27.3730   50.4665 C.ar    1  <0>        -0.0298
      5 C5         -5.8719   26.4937   55.4240 C.ar    1  <0>        -0.0344
      6 C6         -6.7100   28.6643   54.7507 C.ar    1  <0>        -0.0344
      7 C7         -9.9455   26.8995   49.7319 C.ar    1  <0>        -0.0409
      8 C8         -7.7629   27.8860   49.2800 C.ar    1  <0>        -0.0409
      9 C9         -2.1877   28.7183   58.5208 C.3     1  <0>        -0.0138
     10 C10        -1.3140   29.5259   56.2787 C.3     1  <0>        -0.0138
     11 C11        -0.7360   28.4855   58.9340 C.3     1  <0>         0.0487
     12 C12         0.0858   29.1746   56.7974 C.3     1  <0>         0.0487
     13 C13        -3.7718   29.3315   56.5617 C.3     1  <0>         0.0849
     14 C14        -7.2301   26.7256   53.4649 C.ar    1  <0>         0.0832
     15 C15        -8.1743   26.6266   51.2873 C.ar    1  <0>         0.0832
     16 C16        -6.0158   27.8571   55.6480 C.ar    1  <0>         0.0884
     17 C17        -9.0676   27.6321   48.9369 C.ar    1  <0>         0.0411
     18 C18        -2.3731   27.2495   56.3963 C.2     1  <0>         0.2433
     19 C19        -2.4191   28.6809   56.9726 C.3     1  <0>         0.0726
     20 N1         -2.0979   26.1588   57.1246 N.am    1  <0>        -0.1970
     21 O1         -1.9248   24.9994   56.3214 O.3     1  <0>        -0.2952
     22 O2         -2.5544   27.0282   55.1898 O.2     1  <0>        -0.2731
     23 O3         -5.1453   27.6504   58.1811 O.2     1  <0>        -0.1693
     24 O4         -6.1905   29.6732   57.3639 O.2     1  <0>        -0.1693
     25 O5          0.1090   29.3920   58.2035 O.3     1  <0>        -0.3797
     26 O6         -7.8330   26.0178   52.4791 O.3     1  <0>        -0.3093
     27 S1         -5.2935   28.5943   57.0970 S.o2    1  <0>        -0.0021
     28 Cl1        -9.6776   28.1979   47.4380 Cl      1  <0>        -0.0835
     29 H1         -6.4370   24.8717   54.1759 H       1  <0>         0.0644
     30 H2         -7.8586   28.7256   52.9431 H       1  <0>         0.0644
     31 H3        -10.1400   25.8496   51.5850 H       1  <0>         0.0644
     32 H4         -6.2779   27.5391   50.7697 H       1  <0>         0.0644
     33 H5         -5.2743   25.8859   56.0871 H       1  <0>         0.0637
     34 H6         -6.7693   29.7294   54.9194 H       1  <0>         0.0637
     35 H7        -10.9631   26.7235   49.4159 H       1  <0>         0.0633
     36 H8         -7.1208   28.4702   48.6375 H       1  <0>         0.0633
     37 H9         -2.8024   27.9279   58.9762 H       1  <0>         0.0298
     38 H10        -2.4910   29.7103   58.8866 H       1  <0>         0.0298
     39 H11        -1.5068   30.5902   56.4791 H       1  <0>         0.0298
     40 H12        -1.3480   29.3296   55.1969 H       1  <0>         0.0298
     41 H13        -0.6254   28.6655   60.0135 H       1  <0>         0.0560
     42 H14        -0.4488   27.4482   58.7070 H       1  <0>         0.0560
     43 H15         0.3119   28.1205   56.5784 H       1  <0>         0.0560
     44 H16         0.8367   29.8124   56.3081 H       1  <0>         0.0560
     45 H17        -3.7614   30.3509   56.9750 H       1  <0>         0.0514
     46 H18        -3.7958   29.3236   55.4621 H       1  <0>         0.0514
     47 H19        -2.0228   26.1606   58.1217 H       1  <0>         0.1822
     48 H20        -1.8694   25.2522   55.4074 H       1  <0>         0.2414
@<TRIPOS>BOND
     1     1     5   ar
     2     1    14   ar
     3     2     6   ar
     4     2    14   ar
     5     3     7   ar
     6     3    15   ar
     7     4     8   ar
     8     4    15   ar
     9     5    16   ar
    10     6    16   ar
    11     7    17   ar
    12     8    17   ar
    13     9    11    1
    14     9    19    1
    15    10    12    1
    16    10    19    1
    17    11    25    1
    18    12    25    1
    19    13    19    1
    20    13    27    1
    21    14    26    1
    22    15    26    1
    23    16    27    1
    24    17    28    1
    25    18    19    1
    26    18    20   am
    27    18    22    2
    28    20    21    1
    29    23    27    2
    30    24    27    2
    31     1    29    1
    32     2    30    1
    33     3    31    1
    34     4    32    1
    35     5    33    1
    36     6    34    1
    37     7    35    1
    38     8    36    1
    39     9    37    1
    40     9    38    1
    41    10    39    1
    42    10    40    1
    43    11    41    1
    44    11    42    1
    45    12    43    1
    46    12    44    1
    47    13    45    1
    48    13    46    1
    49    20    47    1
    50    21    48    1
@<TRIPOS>SUBSTRUCTURE
     1 <0>         1 TEMP              0 ****  ****    0 ROOT

