
##########                                Name:          RS1_1_830C
##########                    Molecular_Weight:             425.889
##########                DOCK_Rotatable_Bonds:                   8
##########                       Formal_Charge:         0.000199899
##########                     HBond_Acceptors:                   9
##########                        HBond_Donors:                   2
##########                         Heavy_Atoms:                  28
##########                            HA_RMSDs:               1.104
##########                            HA_RMSDh:               1.104
##########                            HA_RMSDm:               1.065
##########                          Grid_Score:          -58.064480
##########                     Grid_vdw_energy:          -58.125103
##########                      Grid_es_energy:            0.060623
##########           Internal_energy_repulsive:           11.293442

@<TRIPOS>MOLECULE
RS1_1_830C
 48 50 1 0 0
SMALL
USER_CHARGES


@<TRIPOS>ATOM
      1 C1         -6.6640   26.0401   54.6527 C.ar    1  <0>        -0.0294
      2 C2         -7.2014   28.2231   53.7498 C.ar    1  <0>        -0.0294
      3 C3         -9.3425   26.4491   50.9917 C.ar    1  <0>        -0.0298
      4 C4         -7.1291   27.4055   50.6750 C.ar    1  <0>        -0.0298
      5 C5         -6.0676   26.6122   55.7453 C.ar    1  <0>        -0.0344
      6 C6         -6.6275   28.7976   54.8633 C.ar    1  <0>        -0.0344
      7 C7         -9.7061   26.9071   49.7435 C.ar    1  <0>        -0.0409
      8 C8         -7.4928   27.8820   49.4402 C.ar    1  <0>        -0.0409
      9 C9         -2.1951   29.2515   58.4739 C.3     1  <0>        -0.0138
     10 C10        -1.7100   30.3063   56.2168 C.3     1  <0>        -0.0138
     11 C11        -0.6861   29.1854   58.6992 C.3     1  <0>         0.0487
     12 C12        -0.2245   30.1094   56.5431 C.3     1  <0>         0.0487
     13 C13        -4.0717   29.7741   56.7626 C.3     1  <0>         0.0849
     14 C14        -7.2342   26.8284   53.6647 C.ar    1  <0>         0.0832
     15 C15        -8.0669   26.6832   51.4446 C.ar    1  <0>         0.0832
     16 C16        -6.0918   27.9958   55.8676 C.ar    1  <0>         0.0884
     17 C17        -8.7659   27.6164   49.0004 C.ar    1  <0>         0.0411
     18 C18        -2.4594   27.9079   56.2762 C.2     1  <0>         0.2433
     19 C19        -2.6092   29.2817   56.9642 C.3     1  <0>         0.0726
     20 N1         -1.9455   26.8244   56.8743 N.am    1  <0>        -0.1970
     21 O1         -1.7382   25.7506   55.9668 O.3     1  <0>        -0.2952
     22 O2         -2.7784   27.7363   55.0904 O.2     1  <0>        -0.2731
     23 O3         -5.0540   27.8023   58.3379 O.2     1  <0>        -0.1693
     24 O4         -6.4631   29.6623   57.7000 O.2     1  <0>        -0.1693
     25 O5         -0.0551   30.2389   57.9501 O.3     1  <0>        -0.3797
     26 O6         -7.8239   26.1109   52.6779 O.3     1  <0>        -0.3093
     27 S1         -5.4179   28.7648   57.3233 S.o2    1  <0>        -0.0021
     28 Cl1        -9.2518   28.1362   47.4407 Cl      1  <0>        -0.0835
     29 H1         -6.6903   24.9644   54.5599 H       1  <0>         0.0644
     30 H2         -7.6155   28.8355   52.9625 H       1  <0>         0.0644
     31 H3        -10.0513   25.9133   51.6056 H       1  <0>         0.0644
     32 H4         -6.1336   27.5817   51.0548 H       1  <0>         0.0644
     33 H5         -5.5889   26.0005   56.4956 H       1  <0>         0.0637
     34 H6         -6.5933   29.8730   54.9571 H       1  <0>         0.0637
     35 H7        -10.6951   26.7205   49.3517 H       1  <0>         0.0633
     36 H8         -6.8001   28.4473   48.8344 H       1  <0>         0.0633
     37 H9         -2.6475   28.3603   58.9334 H       1  <0>         0.0298
     38 H10        -2.5703   30.1702   58.9484 H       1  <0>         0.0298
     39 H11        -2.0056   31.3214   56.5205 H       1  <0>         0.0298
     40 H12        -1.8528   30.1757   55.1339 H       1  <0>         0.0298
     41 H13        -0.4662   29.3099   59.7697 H       1  <0>         0.0560
     42 H14        -0.3040   28.2110   58.3605 H       1  <0>         0.0560
     43 H15         0.1003   29.1099   56.2180 H       1  <0>         0.0560
     44 H16         0.3764   30.8697   56.0227 H       1  <0>         0.0560
     45 H17        -4.1537   30.7267   57.3065 H       1  <0>         0.0514
     46 H18        -4.2089   29.8957   55.6780 H       1  <0>         0.0514
     47 H19        -1.7318   26.7767   57.8499 H       1  <0>         0.1822
     48 H20        -2.2535   25.8949   55.1819 H       1  <0>         0.2414
@<TRIPOS>BOND
     1     1     5   ar
     2     1    14   ar
     3     2     6   ar
     4     2    14   ar
     5     3     7   ar
     6     3    15   ar
     7     4     8   ar
     8     4    15   ar
     9     5    16   ar
    10     6    16   ar
    11     7    17   ar
    12     8    17   ar
    13     9    11    1
    14     9    19    1
    15    10    12    1
    16    10    19    1
    17    11    25    1
    18    12    25    1
    19    13    19    1
    20    13    27    1
    21    14    26    1
    22    15    26    1
    23    16    27    1
    24    17    28    1
    25    18    19    1
    26    18    20   am
    27    18    22    2
    28    20    21    1
    29    23    27    2
    30    24    27    2
    31     1    29    1
    32     2    30    1
    33     3    31    1
    34     4    32    1
    35     5    33    1
    36     6    34    1
    37     7    35    1
    38     8    36    1
    39     9    37    1
    40     9    38    1
    41    10    39    1
    42    10    40    1
    43    11    41    1
    44    11    42    1
    45    12    43    1
    46    12    44    1
    47    13    45    1
    48    13    46    1
    49    20    47    1
    50    21    48    1
@<TRIPOS>SUBSTRUCTURE
     1 <0>         1 TEMP              0 ****  ****    0 ROOT

