
##########                                Name:        K55_922_2ZNP
##########                    Molecular_Weight:             468.468
##########                DOCK_Rotatable_Bonds:                  13
##########                       Formal_Charge:             -1.0004
##########                     HBond_Acceptors:                   9
##########                        HBond_Donors:                   1
##########                         Heavy_Atoms:                  33
##########                            HA_RMSDs:               0.636
##########                            HA_RMSDh:               0.636
##########                            HA_RMSDm:               0.636
##########                          Grid_Score:           20.651257
##########                     Grid_vdw_energy:          -36.498722
##########                      Grid_es_energy:           57.149979
##########           Internal_energy_repulsive:           45.640823

@<TRIPOS>MOLECULE
K55_922_2ZNP
 59 60 1 0 0
SMALL
USER_CHARGES


@<TRIPOS>ATOM
      1 C1         13.5512    7.3048   34.6625 C.3     1  <0>        -0.0652
      2 C2         20.0202   -0.6329   38.6800 C.3     1  <0>        -0.0647
      3 C3         19.0831    2.9293   35.9835 C.ar    1  <0>        -0.0561
      4 C4         11.7197    2.5821   42.1657 C.ar    1  <0>        -0.0492
      5 C5         12.0090    2.2888   40.8343 C.ar    1  <0>        -0.0463
      6 C6         18.3214    4.0909   36.0803 C.ar    1  <0>        -0.0311
      7 C7         17.1113    1.6192   36.5343 C.ar    1  <0>        -0.0514
      8 C8         13.1921    4.5254   42.0105 C.ar    1  <0>        -0.0141
      9 C9         14.9921    7.6989   34.8245 C.3     1  <0>        -0.0538
     10 C10        19.1848   -1.5266   37.7586 C.3     1  <0>        -0.0477
     11 C11        15.4402    7.2390   36.1606 C.3     1  <0>        -0.0292
     12 C12        16.6238    6.3250   36.0415 C.3     1  <0>         0.0542
     13 C13        19.3656    0.4553   36.1230 C.3     1  <0>        -0.0197
     14 C14        14.8696    2.7011   36.9526 C.3     1  <0>         0.0396
     15 C15        18.4983    1.6752   36.2129 C.ar    1  <0>        -0.0463
     16 C16        12.3041    3.7027   42.7785 C.ar    1  <0>         0.0576
     17 C17        12.8786    3.1028   40.0918 C.ar    1  <0>         0.0718
     18 C18        16.9598    4.0214   36.4012 C.ar    1  <0>         0.0808
     19 C19        16.3350    2.8107   36.6238 C.ar    1  <0>        -0.0001
     20 C20        13.4683    4.2083   40.6603 C.ar    1  <0>         0.1360
     21 C21        18.7181   -0.8959   36.4035 C.3     1  <0>         0.0023
     22 C22        13.1468    2.7698   38.7324 C.2     1  <0>         0.2471
     23 C23        19.1197   -1.8255   35.2954 C.2     1  <0>         0.0451
     24 C24        11.9794    4.0227   44.2132 C.3     1  <0>         0.4175
     25 N1         14.4585    3.0012   38.2993 N.am    1  <0>        -0.3071
     26 O1         20.4467   -1.8121   35.1001 O.co2   1  <0>        -0.5495
     27 O2         12.2517    2.3073   38.0608 O.2     1  <0>        -0.2701
     28 O3         18.3914   -2.5451   34.6329 O.co2   1  <0>        -0.5495
     29 O4         16.1598    5.0699   36.5130 O.3     1  <0>        -0.3444
     30 F1         14.3065    4.9958   39.9519 F       1  <0>        -0.2047
     31 F2         10.7089    4.3884   44.3720 F       1  <0>        -0.1659
     32 F3         12.7276    5.0529   44.7263 F       1  <0>        -0.1659
     33 F4         12.1189    2.9945   45.0355 F       1  <0>        -0.1659
     34 H1         13.1892    7.6338   33.6772 H       1  <0>         0.0230
     35 H2         13.4593    6.2114   34.7404 H       1  <0>         0.0230
     36 H3         12.9501    7.7806   35.4513 H       1  <0>         0.0230
     37 H4         20.2826   -1.1893   39.5920 H       1  <0>         0.0230
     38 H5         20.9399   -0.3279   38.1594 H       1  <0>         0.0230
     39 H6         19.4382    0.2605   38.9504 H       1  <0>         0.0230
     40 H7         20.1309    2.9945   35.7300 H       1  <0>         0.0621
     41 H8         11.0472    1.9489   42.7253 H       1  <0>         0.0623
     42 H9         11.5586    1.4248   40.3683 H       1  <0>         0.0626
     43 H10        18.7835    5.0516   35.9070 H       1  <0>         0.0643
     44 H11        16.6429    0.6624   36.7122 H       1  <0>         0.0624
     45 H12        13.6520    5.3906   42.4648 H       1  <0>         0.0652
     46 H13        15.6022    7.2279   34.0398 H       1  <0>         0.0263
     47 H14        15.0948    8.7915   34.7481 H       1  <0>         0.0263
     48 H15        19.8002   -2.4046   37.5129 H       1  <0>         0.0269
     49 H16        18.2783   -1.8083   38.3145 H       1  <0>         0.0269
     50 H17        15.7223    8.1139   36.7647 H       1  <0>         0.0287
     51 H18        14.6163    6.6968   36.6478 H       1  <0>         0.0287
     52 H19        16.9654    6.2540   34.9982 H       1  <0>         0.0565
     53 H20        17.4668    6.6884   36.6477 H       1  <0>         0.0565
     54 H21        19.7531    0.4152   35.0943 H       1  <0>         0.0319
     55 H22        20.1707    0.5819   36.8617 H       1  <0>         0.0319
     56 H23        14.3429    3.4083   36.2949 H       1  <0>         0.0512
     57 H24        14.5772    1.6591   36.7562 H       1  <0>         0.0512
     58 H25        17.6300   -0.7469   36.4659 H       1  <0>         0.0363
     59 H26        15.1245    3.3834   38.9399 H       1  <0>         0.1493
@<TRIPOS>BOND
     1     1     9    1
     2     2    10    1
     3     3     6   ar
     4     3    15   ar
     5     4     5   ar
     6     4    16   ar
     7     5    17   ar
     8     6    18   ar
     9     7    15   ar
    10     7    19   ar
    11     8    16   ar
    12     8    20   ar
    13     9    11    1
    14    10    21    1
    15    11    12    1
    16    12    29    1
    17    13    15    1
    18    13    21    1
    19    14    19    1
    20    14    25    1
    21    16    24    1
    22    17    20   ar
    23    17    22    1
    24    18    19   ar
    25    18    29    1
    26    20    30    1
    27    21    23    1
    28    22    25   am
    29    22    27    2
    30    23    26    1
    31    23    28    2
    32    24    31    1
    33    24    32    1
    34    24    33    1
    35     1    34    1
    36     1    35    1
    37     1    36    1
    38     2    37    1
    39     2    38    1
    40     2    39    1
    41     3    40    1
    42     4    41    1
    43     5    42    1
    44     6    43    1
    45     7    44    1
    46     8    45    1
    47     9    46    1
    48     9    47    1
    49    10    48    1
    50    10    49    1
    51    11    50    1
    52    11    51    1
    53    12    52    1
    54    12    53    1
    55    13    54    1
    56    13    55    1
    57    14    56    1
    58    14    57    1
    59    21    58    1
    60    25    59    1
@<TRIPOS>SUBSTRUCTURE
     1 <0>         1 TEMP              0 ****  ****    0 ROOT

