
##########                                Name:        K55_922_2ZNP
##########                    Molecular_Weight:             468.468
##########                DOCK_Rotatable_Bonds:                  13
##########                       Formal_Charge:             -1.0004
##########                     HBond_Acceptors:                   9
##########                        HBond_Donors:                   1
##########                         Heavy_Atoms:                  33
##########                            HA_RMSDs:              10.431
##########                            HA_RMSDh:              10.067
##########                            HA_RMSDm:               8.203
##########                          Grid_Score:            6.745848
##########                     Grid_vdw_energy:          -29.344297
##########                      Grid_es_energy:           36.090145
##########           Internal_energy_repulsive:           58.551838

@<TRIPOS>MOLECULE
K55_922_2ZNP
 59 60 1 0 0
SMALL
USER_CHARGES


@<TRIPOS>ATOM
      1 C1          5.4809   -0.0715   37.3417 C.3     1  <0>        -0.0652
      2 C2         10.3680   -7.2737   44.0388 C.3     1  <0>        -0.0647
      3 C3          8.1904   -5.6325   39.9560 C.ar    1  <0>        -0.0561
      4 C4         11.0856    2.9659   43.0814 C.ar    1  <0>        -0.0492
      5 C5          9.9427    2.1689   43.0512 C.ar    1  <0>        -0.0463
      6 C6          8.0675   -4.6191   39.0090 C.ar    1  <0>        -0.0311
      7 C7          7.8485   -3.9940   41.7185 C.ar    1  <0>        -0.0514
      8 C8         11.6382    2.1803   40.8352 C.ar    1  <0>        -0.0141
      9 C9          6.0391   -0.9410   36.2507 C.3     1  <0>        -0.0538
     10 C10         9.1953   -6.5471   44.7039 C.3     1  <0>        -0.0477
     11 C11         7.4688   -1.1877   36.5548 C.3     1  <0>        -0.0292
     12 C12         7.6550   -2.5342   37.1894 C.3     1  <0>         0.0542
     13 C13         8.2554   -6.4625   42.3070 C.3     1  <0>        -0.0197
     14 C14         7.4472   -1.5550   41.2076 C.3     1  <0>         0.0396
     15 C15         8.0896   -5.3420   41.3246 C.ar    1  <0>        -0.0463
     16 C16        11.9537    2.9870   41.9774 C.ar    1  <0>         0.0576
     17 C17         9.6433    1.3846   41.9263 C.ar    1  <0>         0.0718
     18 C18         7.8348   -3.2976   39.4106 C.ar    1  <0>         0.0808
     19 C19         7.7154   -2.9625   40.7444 C.ar    1  <0>        -0.0001
     20 C20        10.4712    1.3815   40.8274 C.ar    1  <0>         0.1360
     21 C21         7.9937   -6.1591   43.7778 C.3     1  <0>         0.0023
     22 C22         8.4637    0.5849   41.9341 C.2     1  <0>         0.2471
     23 C23         6.8020   -6.9689   44.1987 C.2     1  <0>         0.0451
     24 C24        13.1806    3.8587   42.0095 C.3     1  <0>         0.4175
     25 N1          8.5604   -0.6441   41.2693 N.am    1  <0>        -0.3071
     26 O1          6.7899   -8.1708   43.6031 O.co2   1  <0>        -0.5495
     27 O2          7.4843    1.0014   42.5115 O.2     1  <0>        -0.2701
     28 O3          5.9320   -6.6483   44.9908 O.co2   1  <0>        -0.5495
     29 O4          7.7031   -2.2730   38.5831 O.3     1  <0>        -0.3444
     30 F1         10.1896    0.6288   39.7417 F       1  <0>        -0.2047
     31 F2         12.8789    5.1544   41.9520 F       1  <0>        -0.1659
     32 F3         14.0396    3.6321   40.9629 F       1  <0>        -0.1659
     33 F4         13.8876    3.7465   43.1233 F       1  <0>        -0.1659
     34 H1          4.4178    0.1297   37.1431 H       1  <0>         0.0230
     35 H2          5.5822   -0.5862   38.3085 H       1  <0>         0.0230
     36 H3          6.0342    0.8787   37.3722 H       1  <0>         0.0230
     37 H4         11.1411   -7.4887   44.7912 H       1  <0>         0.0230
     38 H5         10.0125   -8.2171   43.5987 H       1  <0>         0.0230
     39 H6         10.7926   -6.6373   43.2484 H       1  <0>         0.0230
     40 H7          8.3643   -6.6488   39.6347 H       1  <0>         0.0621
     41 H8         11.3034    3.5664   43.9523 H       1  <0>         0.0623
     42 H9          9.2795    2.1545   43.9035 H       1  <0>         0.0626
     43 H10         8.1523   -4.8536   37.9582 H       1  <0>         0.0643
     44 H11         7.7657   -3.7512   42.7676 H       1  <0>         0.0624
     45 H12        12.2943    2.1825   39.9772 H       1  <0>         0.0652
     46 H13         5.4921   -1.8945   36.2118 H       1  <0>         0.0263
     47 H14         5.9424   -0.4348   35.2788 H       1  <0>         0.0263
     48 H15         8.8009   -7.2144   45.4845 H       1  <0>         0.0269
     49 H16         9.5915   -5.6133   45.1295 H       1  <0>         0.0269
     50 H17         8.0459   -1.1496   35.6191 H       1  <0>         0.0287
     51 H18         7.8268   -0.4122   37.2480 H       1  <0>         0.0287
     52 H19         6.8209   -3.2072   36.9415 H       1  <0>         0.0565
     53 H20         8.5849   -3.0094   36.8436 H       1  <0>         0.0565
     54 H21         7.5465   -7.2507   42.0135 H       1  <0>         0.0319
     55 H22         9.2998   -6.7995   42.2324 H       1  <0>         0.0319
     56 H23         6.7214   -1.1220   40.5035 H       1  <0>         0.0512
     57 H24         7.0401   -1.6283   42.2268 H       1  <0>         0.0512
     58 H25         7.8344   -5.0756   43.8800 H       1  <0>         0.0363
     59 H26         9.4219   -0.8944   40.8277 H       1  <0>         0.1493
@<TRIPOS>BOND
     1     1     9    1
     2     2    10    1
     3     3     6   ar
     4     3    15   ar
     5     4     5   ar
     6     4    16   ar
     7     5    17   ar
     8     6    18   ar
     9     7    15   ar
    10     7    19   ar
    11     8    16   ar
    12     8    20   ar
    13     9    11    1
    14    10    21    1
    15    11    12    1
    16    12    29    1
    17    13    15    1
    18    13    21    1
    19    14    19    1
    20    14    25    1
    21    16    24    1
    22    17    20   ar
    23    17    22    1
    24    18    19   ar
    25    18    29    1
    26    20    30    1
    27    21    23    1
    28    22    25   am
    29    22    27    2
    30    23    26    1
    31    23    28    2
    32    24    31    1
    33    24    32    1
    34    24    33    1
    35     1    34    1
    36     1    35    1
    37     1    36    1
    38     2    37    1
    39     2    38    1
    40     2    39    1
    41     3    40    1
    42     4    41    1
    43     5    42    1
    44     6    43    1
    45     7    44    1
    46     8    45    1
    47     9    46    1
    48     9    47    1
    49    10    48    1
    50    10    49    1
    51    11    50    1
    52    11    51    1
    53    12    52    1
    54    12    53    1
    55    13    54    1
    56    13    55    1
    57    14    56    1
    58    14    57    1
    59    21    58    1
    60    25    59    1
@<TRIPOS>SUBSTRUCTURE
     1 <0>         1 TEMP              0 ****  ****    0 ROOT

