
##########                                Name:        K55_922_2ZNP
##########                    Molecular_Weight:             468.468
##########                DOCK_Rotatable_Bonds:                  13
##########                       Formal_Charge:             -1.0004
##########                     HBond_Acceptors:                   9
##########                        HBond_Donors:                   1
##########                         Heavy_Atoms:                  33
##########                            HA_RMSDs:              10.409
##########                            HA_RMSDh:               9.437
##########                            HA_RMSDm:               7.641
##########                          Grid_Score:           -0.571487
##########                     Grid_vdw_energy:          -39.955841
##########                      Grid_es_energy:           39.384354
##########           Internal_energy_repulsive:           45.791954

@<TRIPOS>MOLECULE
K55_922_2ZNP
 59 60 1 0 0
SMALL
USER_CHARGES


@<TRIPOS>ATOM
      1 C1          5.5992    2.9374   36.2184 C.3     1  <0>        -0.0652
      2 C2          7.9808   -6.6928   41.8063 C.3     1  <0>        -0.0647
      3 C3          6.0718   -3.0948   40.0457 C.ar    1  <0>        -0.0561
      4 C4         13.6668    2.8055   39.5231 C.ar    1  <0>        -0.0492
      5 C5         12.6948    2.3914   40.4321 C.ar    1  <0>        -0.0463
      6 C6          6.2953   -2.0065   39.2064 C.ar    1  <0>        -0.0311
      7 C7          7.4205   -2.0201   41.7586 C.ar    1  <0>        -0.0514
      8 C8         11.9857    2.7148   37.7529 C.ar    1  <0>        -0.0141
      9 C9          6.3949    1.7056   35.8908 C.3     1  <0>        -0.0538
     10 C10         8.3678   -5.7777   42.9718 C.3     1  <0>        -0.0477
     11 C11         7.3367    1.4637   37.0098 C.3     1  <0>        -0.0292
     12 C12         7.2318    0.0497   37.4997 C.3     1  <0>         0.0542
     13 C13         6.3845   -4.3326   42.1882 C.3     1  <0>        -0.0197
     14 C14         8.4679    0.2479   41.3983 C.3     1  <0>         0.0396
     15 C15         6.6316   -3.1271   41.3314 C.ar    1  <0>        -0.0463
     16 C16        13.3326    2.9745   38.1694 C.ar    1  <0>         0.0576
     17 C17        11.3788    2.1420   40.0127 C.ar    1  <0>         0.0718
     18 C18         7.0763   -0.9268   39.6378 C.ar    1  <0>         0.0808
     19 C19         7.6389   -0.9054   40.8982 C.ar    1  <0>        -0.0001
     20 C20        11.0166    2.2977   38.6946 C.ar    1  <0>         0.1360
     21 C21         7.3737   -4.6168   43.3127 C.3     1  <0>         0.0023
     22 C22        10.4139    1.7221   40.9738 C.2     1  <0>         0.2471
     23 C23         6.5784   -5.0249   44.5185 C.2     1  <0>         0.0451
     24 C24        14.3826    3.4336   37.1933 C.3     1  <0>         0.4175
     25 N1          9.4913    0.7669   40.5288 N.am    1  <0>        -0.3071
     26 O1          5.7776   -6.0666   44.2490 O.co2   1  <0>        -0.5495
     27 O2         10.4610    2.1945   42.0877 O.2     1  <0>        -0.2701
     28 O3          6.6210   -4.5335   45.6338 O.co2   1  <0>        -0.5495
     29 O4          7.3399    0.1475   38.9110 O.3     1  <0>        -0.3444
     30 F1          9.7521    2.0590   38.2839 F       1  <0>        -0.2047
     31 F2         14.5140    4.7587   37.1819 F       1  <0>        -0.1659
     32 F3         14.1150    3.0773   35.8949 F       1  <0>        -0.1659
     33 F4         15.6006    2.9963   37.4727 F       1  <0>        -0.1659
     34 H1          4.8893    3.1432   35.4038 H       1  <0>         0.0230
     35 H2          5.0456    2.7777   37.1554 H       1  <0>         0.0230
     36 H3          6.2802    3.7931   36.3359 H       1  <0>         0.0230
     37 H4          8.7558   -7.4615   41.6701 H       1  <0>         0.0230
     38 H5          7.0180   -7.1778   42.0251 H       1  <0>         0.0230
     39 H6          7.8905   -6.0964   40.8864 H       1  <0>         0.0230
     40 H7          5.4634   -3.9193   39.7046 H       1  <0>         0.0621
     41 H8         14.6754    2.9961   39.8591 H       1  <0>         0.0623
     42 H9         12.9575    2.2609   41.4715 H       1  <0>         0.0626
     43 H10         5.8637   -1.9948   38.2164 H       1  <0>         0.0643
     44 H11         7.8581   -2.0259   42.7460 H       1  <0>         0.0624
     45 H12        11.7100    2.8382   36.7159 H       1  <0>         0.0652
     46 H13         5.7225    0.8434   35.7712 H       1  <0>         0.0263
     47 H14         6.9527    1.8552   34.9546 H       1  <0>         0.0263
     48 H15         8.4475   -6.4102   43.8682 H       1  <0>         0.0269
     49 H16         9.3316   -5.3143   42.7142 H       1  <0>         0.0269
     50 H17         8.3634    1.6465   36.6600 H       1  <0>         0.0287
     51 H18         7.0946    2.1482   37.8362 H       1  <0>         0.0287
     52 H19         6.2717   -0.4004   37.2068 H       1  <0>         0.0565
     53 H20         8.0367   -0.5739   37.0836 H       1  <0>         0.0565
     54 H21         5.3999   -4.1927   42.6582 H       1  <0>         0.0319
     55 H22         6.4017   -5.2067   41.5207 H       1  <0>         0.0319
     56 H23         7.7719    1.0758   41.5989 H       1  <0>         0.0512
     57 H24         8.9731   -0.0971   42.3125 H       1  <0>         0.0512
     58 H25         7.9713   -3.7086   43.4796 H       1  <0>         0.0363
     59 H26         9.5446    0.4380   39.5859 H       1  <0>         0.1493
@<TRIPOS>BOND
     1     1     9    1
     2     2    10    1
     3     3     6   ar
     4     3    15   ar
     5     4     5   ar
     6     4    16   ar
     7     5    17   ar
     8     6    18   ar
     9     7    15   ar
    10     7    19   ar
    11     8    16   ar
    12     8    20   ar
    13     9    11    1
    14    10    21    1
    15    11    12    1
    16    12    29    1
    17    13    15    1
    18    13    21    1
    19    14    19    1
    20    14    25    1
    21    16    24    1
    22    17    20   ar
    23    17    22    1
    24    18    19   ar
    25    18    29    1
    26    20    30    1
    27    21    23    1
    28    22    25   am
    29    22    27    2
    30    23    26    1
    31    23    28    2
    32    24    31    1
    33    24    32    1
    34    24    33    1
    35     1    34    1
    36     1    35    1
    37     1    36    1
    38     2    37    1
    39     2    38    1
    40     2    39    1
    41     3    40    1
    42     4    41    1
    43     5    42    1
    44     6    43    1
    45     7    44    1
    46     8    45    1
    47     9    46    1
    48     9    47    1
    49    10    48    1
    50    10    49    1
    51    11    50    1
    52    11    51    1
    53    12    52    1
    54    12    53    1
    55    13    54    1
    56    13    55    1
    57    14    56    1
    58    14    57    1
    59    21    58    1
    60    25    59    1
@<TRIPOS>SUBSTRUCTURE
     1 <0>         1 TEMP              0 ****  ****    0 ROOT

