
##########                                Name:        K55_922_2ZNP
##########                    Molecular_Weight:             468.468
##########                DOCK_Rotatable_Bonds:                  13
##########                       Formal_Charge:             -1.0004
##########                     HBond_Acceptors:                   9
##########                        HBond_Donors:                   1
##########                         Heavy_Atoms:                  33
##########                            HA_RMSDs:              10.410
##########                            HA_RMSDh:               9.887
##########                            HA_RMSDm:               8.108
##########                          Grid_Score:           -0.842102
##########                     Grid_vdw_energy:          -38.010822
##########                      Grid_es_energy:           37.168720
##########           Internal_energy_repulsive:           43.270973

@<TRIPOS>MOLECULE
K55_922_2ZNP
 59 60 1 0 0
SMALL
USER_CHARGES


@<TRIPOS>ATOM
      1 C1          5.9725    1.1437   37.3816 C.3     1  <0>        -0.0652
      2 C2         10.0053   -8.2220   43.5366 C.3     1  <0>        -0.0647
      3 C3          7.9308   -5.3538   40.2614 C.ar    1  <0>        -0.0561
      4 C4         12.1378    3.0375   42.0946 C.ar    1  <0>        -0.0492
      5 C5         11.0323    2.2830   42.4832 C.ar    1  <0>        -0.0463
      6 C6          7.9087   -4.2467   39.4171 C.ar    1  <0>        -0.0311
      7 C7          8.0212   -3.8607   42.1773 C.ar    1  <0>        -0.0514
      8 C8         11.6581    2.4602   39.7698 C.ar    1  <0>        -0.0141
      9 C9          6.4354   -0.1033   36.6828 C.3     1  <0>        -0.0538
     10 C10         9.5419   -7.1162   44.4896 C.3     1  <0>        -0.0477
     11 C11         7.6980   -0.5404   37.3248 C.3     1  <0>        -0.0292
     12 C12         7.5731   -1.9398   37.8508 C.3     1  <0>         0.0542
     13 C13         8.0415   -6.4079   42.5190 C.3     1  <0>        -0.0197
     14 C14         8.0075   -1.3509   41.9095 C.3     1  <0>         0.0396
     15 C15         7.9929   -5.1852   41.6525 C.ar    1  <0>        -0.0463
     16 C16        12.4718    3.1404   40.7342 C.ar    1  <0>         0.0576
     17 C17        10.2418    1.6230   41.5295 C.ar    1  <0>         0.0718
     18 C18         7.9412   -2.9504   39.9465 C.ar    1  <0>         0.0808
     19 C19         7.9900   -2.7315   41.3086 C.ar    1  <0>        -0.0001
     20 C20        10.5399    1.7025   40.1887 C.ar    1  <0>         0.1360
     21 C21         8.3590   -6.2158   43.9975 C.3     1  <0>         0.0023
     22 C22         9.1185    0.8633   41.9677 C.2     1  <0>         0.2471
     23 C23         7.1317   -6.5955   44.7738 C.2     1  <0>         0.0451
     24 C24        13.6596    3.9663   40.3180 C.3     1  <0>         0.4175
     25 N1          9.0806   -0.4678   41.5336 N.am    1  <0>        -0.3071
     26 O1          6.7370   -7.8452   44.4879 O.co2   1  <0>        -0.5495
     27 O2          8.2983    1.3984   42.6797 O.2     1  <0>        -0.2701
     28 O3          6.5332   -5.9159   45.5905 O.co2   1  <0>        -0.5495
     29 O4          7.9221   -1.8425   39.2225 O.3     1  <0>        -0.3444
     30 F1          9.7838    1.0695   39.2655 F       1  <0>        -0.2047
     31 F2         13.5564    5.2327   40.7166 F       1  <0>        -0.1659
     32 F3         13.8383    4.0202   38.9579 F       1  <0>        -0.1659
     33 F4         14.8045    3.5602   40.8442 F       1  <0>        -0.1659
     34 H1          5.0344    1.4933   36.9259 H       1  <0>         0.0230
     35 H2          5.8038    0.9259   38.4466 H       1  <0>         0.0230
     36 H3          6.7407    1.9251   37.2843 H       1  <0>         0.0230
     37 H4         10.8353   -8.7786   43.9962 H       1  <0>         0.0230
     38 H5          9.1692   -8.9086   43.3378 H       1  <0>         0.0230
     39 H6         10.3441   -7.7729   42.5913 H       1  <0>         0.0230
     40 H7          7.8998   -6.3487   39.8424 H       1  <0>         0.0621
     41 H8         12.7366    3.5423   42.8383 H       1  <0>         0.0623
     42 H9         10.7809    2.2054   43.5307 H       1  <0>         0.0626
     43 H10         7.8663   -4.3886   38.3473 H       1  <0>         0.0643
     44 H11         8.0669   -3.7109   43.2459 H       1  <0>         0.0624
     45 H12        11.8998    2.5266   38.7193 H       1  <0>         0.0652
     46 H13         5.6736   -0.8915   36.7745 H       1  <0>         0.0263
     47 H14         6.6072    0.1041   35.6162 H       1  <0>         0.0263
     48 H15         9.2128   -7.6052   45.4183 H       1  <0>         0.0269
     49 H16        10.4034   -6.4543   44.6618 H       1  <0>         0.0269
     50 H17         8.5080   -0.5079   36.5813 H       1  <0>         0.0287
     51 H18         7.9285    0.1372   38.1602 H       1  <0>         0.0287
     52 H19         6.5472   -2.3179   37.7294 H       1  <0>         0.0565
     53 H20         8.2494   -2.6245   37.3180 H       1  <0>         0.0565
     54 H21         7.0476   -6.8760   42.4650 H       1  <0>         0.0319
     55 H22         8.8263   -7.0592   42.1069 H       1  <0>         0.0319
     56 H23         7.0712   -0.8603   41.6052 H       1  <0>         0.0512
     57 H24         8.0701   -1.4801   43.0001 H       1  <0>         0.0512
     58 H25         8.6562   -5.1677   44.1497 H       1  <0>         0.0363
     59 H26         9.8153   -0.8125   40.9493 H       1  <0>         0.1493
@<TRIPOS>BOND
     1     1     9    1
     2     2    10    1
     3     3     6   ar
     4     3    15   ar
     5     4     5   ar
     6     4    16   ar
     7     5    17   ar
     8     6    18   ar
     9     7    15   ar
    10     7    19   ar
    11     8    16   ar
    12     8    20   ar
    13     9    11    1
    14    10    21    1
    15    11    12    1
    16    12    29    1
    17    13    15    1
    18    13    21    1
    19    14    19    1
    20    14    25    1
    21    16    24    1
    22    17    20   ar
    23    17    22    1
    24    18    19   ar
    25    18    29    1
    26    20    30    1
    27    21    23    1
    28    22    25   am
    29    22    27    2
    30    23    26    1
    31    23    28    2
    32    24    31    1
    33    24    32    1
    34    24    33    1
    35     1    34    1
    36     1    35    1
    37     1    36    1
    38     2    37    1
    39     2    38    1
    40     2    39    1
    41     3    40    1
    42     4    41    1
    43     5    42    1
    44     6    43    1
    45     7    44    1
    46     8    45    1
    47     9    46    1
    48     9    47    1
    49    10    48    1
    50    10    49    1
    51    11    50    1
    52    11    51    1
    53    12    52    1
    54    12    53    1
    55    13    54    1
    56    13    55    1
    57    14    56    1
    58    14    57    1
    59    21    58    1
    60    25    59    1
@<TRIPOS>SUBSTRUCTURE
     1 <0>         1 TEMP              0 ****  ****    0 ROOT

