
##########                                Name:        K55_922_2ZNP
##########                    Molecular_Weight:             468.468
##########                DOCK_Rotatable_Bonds:                  13
##########                       Formal_Charge:             -1.0004
##########                     HBond_Acceptors:                   9
##########                        HBond_Donors:                   1
##########                         Heavy_Atoms:                  33
##########                            HA_RMSDs:              10.461
##########                            HA_RMSDh:               9.932
##########                            HA_RMSDm:               8.075
##########                          Grid_Score:           -0.737656
##########                     Grid_vdw_energy:          -39.696678
##########                      Grid_es_energy:           38.959023
##########           Internal_energy_repulsive:           32.067875

@<TRIPOS>MOLECULE
K55_922_2ZNP
 59 60 1 0 0
SMALL
USER_CHARGES


@<TRIPOS>ATOM
      1 C1          5.9528    1.1818   37.1378 C.3     1  <0>        -0.0652
      2 C2          9.6166   -8.0463   43.8020 C.3     1  <0>        -0.0647
      3 C3          7.6946   -5.1717   40.3009 C.ar    1  <0>        -0.0561
      4 C4         12.0406    3.1633   42.2625 C.ar    1  <0>        -0.0492
      5 C5         10.9003    2.4429   42.6134 C.ar    1  <0>        -0.0463
      6 C6          7.6297   -4.1046   39.4088 C.ar    1  <0>        -0.0311
      7 C7          7.7985   -3.5922   42.1455 C.ar    1  <0>        -0.0514
      8 C8         11.7458    2.4192   39.9544 C.ar    1  <0>        -0.0141
      9 C9          6.3969   -0.1045   36.5004 C.3     1  <0>        -0.0538
     10 C10         9.0191   -6.9928   44.7395 C.3     1  <0>        -0.0477
     11 C11         7.6747   -0.5071   37.1350 C.3     1  <0>        -0.0292
     12 C12         7.5768   -1.8934   37.6998 C.3     1  <0>         0.0542
     13 C13         7.8800   -6.1206   42.6000 C.3     1  <0>        -0.0197
     14 C14         7.7261   -1.0979   41.7664 C.3     1  <0>         0.0396
     15 C15         7.7856   -4.9393   41.6812 C.ar    1  <0>        -0.0463
     16 C16        12.4849    3.1654   40.9301 C.ar    1  <0>         0.0576
     17 C17        10.1838    1.7175   41.6488 C.ar    1  <0>         0.0718
     18 C18         7.6474   -2.7853   39.8789 C.ar    1  <0>         0.0808
     19 C19         7.7234   -2.5043   41.2283 C.ar    1  <0>        -0.0001
     20 C20        10.5903    1.6978   40.3346 C.ar    1  <0>         0.1360
     21 C21         8.1813   -5.8519   44.0699 C.3     1  <0>         0.0023
     22 C22         9.0216    0.9956   42.0479 C.2     1  <0>         0.2471
     23 C23         6.8666   -5.7577   44.7883 C.2     1  <0>         0.0451
     24 C24        13.7101    3.9547   40.5533 C.3     1  <0>         0.4175
     25 N1          8.8515   -0.2584   41.4478 N.am    1  <0>        -0.3071
     26 O1          6.1944   -6.9173   44.7360 O.co2   1  <0>        -0.5495
     27 O2          8.2831    1.4928   42.8686 O.2     1  <0>        -0.2701
     28 O3          6.4157   -4.7930   45.3824 O.co2   1  <0>        -0.5495
     29 O4          7.5883   -1.7118   39.1068 O.3     1  <0>        -0.3444
     30 F1          9.9059    1.0015   39.4012 F       1  <0>        -0.2047
     31 F2         13.5176    5.2674   40.6670 F       1  <0>        -0.1659
     32 F3         14.1142    3.7511   39.2572 F       1  <0>        -0.1659
     33 F4         14.7575    3.7192   41.3281 F       1  <0>        -0.1659
     34 H1          5.0040    1.5069   36.6860 H       1  <0>         0.0230
     35 H2          5.8104    1.0258   38.2173 H       1  <0>         0.0230
     36 H3          6.7191    1.9543   36.9767 H       1  <0>         0.0230
     37 H4         10.1776   -8.7864   44.3915 H       1  <0>         0.0230
     38 H5          8.8070   -8.5512   43.2547 H       1  <0>         0.0230
     39 H6         10.2943   -7.5578   43.0864 H       1  <0>         0.0230
     40 H7          7.6747   -6.1850   39.9277 H       1  <0>         0.0621
     41 H8         12.5818    3.7191   43.0140 H       1  <0>         0.0623
     42 H9         10.5640    2.4429   43.6397 H       1  <0>         0.0626
     43 H10         7.5654   -4.2954   38.3477 H       1  <0>         0.0643
     44 H11         7.8659   -3.3935   43.2049 H       1  <0>         0.0624
     45 H12        12.0726    2.4078   38.9251 H       1  <0>         0.0652
     46 H13         5.6368   -0.8842   36.6560 H       1  <0>         0.0263
     47 H14         6.5423    0.0410   35.4198 H       1  <0>         0.0263
     48 H15         8.3507   -7.5201   45.4360 H       1  <0>         0.0269
     49 H16         9.8579   -6.5134   45.2654 H       1  <0>         0.0269
     50 H17         8.4733   -0.4836   36.3790 H       1  <0>         0.0287
     51 H18         7.9078    0.1957   37.9485 H       1  <0>         0.0287
     52 H19         6.6512   -2.3896   37.3724 H       1  <0>         0.0565
     53 H20         8.4246   -2.5140   37.3741 H       1  <0>         0.0565
     54 H21         6.9066   -6.6314   42.5627 H       1  <0>         0.0319
     55 H22         8.6933   -6.7559   42.2193 H       1  <0>         0.0319
     56 H23         6.8335   -0.6004   41.3590 H       1  <0>         0.0512
     57 H24         7.6897   -1.1774   42.8628 H       1  <0>         0.0512
     58 H25         8.7727   -4.9267   44.1338 H       1  <0>         0.0363
     59 H26         9.5268   -0.5779   40.7831 H       1  <0>         0.1493
@<TRIPOS>BOND
     1     1     9    1
     2     2    10    1
     3     3     6   ar
     4     3    15   ar
     5     4     5   ar
     6     4    16   ar
     7     5    17   ar
     8     6    18   ar
     9     7    15   ar
    10     7    19   ar
    11     8    16   ar
    12     8    20   ar
    13     9    11    1
    14    10    21    1
    15    11    12    1
    16    12    29    1
    17    13    15    1
    18    13    21    1
    19    14    19    1
    20    14    25    1
    21    16    24    1
    22    17    20   ar
    23    17    22    1
    24    18    19   ar
    25    18    29    1
    26    20    30    1
    27    21    23    1
    28    22    25   am
    29    22    27    2
    30    23    26    1
    31    23    28    2
    32    24    31    1
    33    24    32    1
    34    24    33    1
    35     1    34    1
    36     1    35    1
    37     1    36    1
    38     2    37    1
    39     2    38    1
    40     2    39    1
    41     3    40    1
    42     4    41    1
    43     5    42    1
    44     6    43    1
    45     7    44    1
    46     8    45    1
    47     9    46    1
    48     9    47    1
    49    10    48    1
    50    10    49    1
    51    11    50    1
    52    11    51    1
    53    12    52    1
    54    12    53    1
    55    13    54    1
    56    13    55    1
    57    14    56    1
    58    14    57    1
    59    21    58    1
    60    25    59    1
@<TRIPOS>SUBSTRUCTURE
     1 <0>         1 TEMP              0 ****  ****    0 ROOT

