
##########                                Name:        K55_922_2ZNP
##########                    Molecular_Weight:             468.468
##########                DOCK_Rotatable_Bonds:                  13
##########                       Formal_Charge:             -1.0004
##########                     HBond_Acceptors:                   9
##########                        HBond_Donors:                   1
##########                         Heavy_Atoms:                  33
##########                            HA_RMSDs:              10.227
##########                            HA_RMSDh:               9.420
##########                            HA_RMSDm:               7.802
##########                          Grid_Score:           -1.391369
##########                     Grid_vdw_energy:          -39.488579
##########                      Grid_es_energy:           38.097210
##########           Internal_energy_repulsive:           46.741077

@<TRIPOS>MOLECULE
K55_922_2ZNP
 59 60 1 0 0
SMALL
USER_CHARGES


@<TRIPOS>ATOM
      1 C1          5.5144    1.7027   36.2122 C.3     1  <0>        -0.0652
      2 C2          8.3659   -6.1185   40.6365 C.3     1  <0>        -0.0647
      3 C3          6.7181   -3.7798   37.8621 C.ar    1  <0>        -0.0561
      4 C4         13.3546    2.4481   38.8926 C.ar    1  <0>        -0.0492
      5 C5         12.2485    1.8428   39.4863 C.ar    1  <0>        -0.0463
      6 C6          7.1870   -2.8352   36.9527 C.ar    1  <0>        -0.0311
      7 C7          6.8642   -2.1164   39.6284 C.ar    1  <0>        -0.0514
      8 C8         11.9383    3.0828   37.0060 C.ar    1  <0>        -0.0141
      9 C9          5.8737    1.1571   34.8591 C.3     1  <0>        -0.0538
     10 C10         7.8122   -5.3660   41.8501 C.3     1  <0>        -0.0477
     11 C11         7.3230    0.8462   34.8661 C.3     1  <0>        -0.0292
     12 C12         7.5586   -0.5932   35.2168 C.3     1  <0>         0.0542
     13 C13         6.0708   -4.5026   40.1597 C.3     1  <0>        -0.0197
     14 C14         7.6383    0.2425   39.1734 C.3     1  <0>         0.0396
     15 C15         6.5530   -3.4437   39.2138 C.ar    1  <0>        -0.0463
     16 C16        13.2220    3.0778   37.6442 C.ar    1  <0>         0.0576
     17 C17        10.9962    1.8558   38.8527 C.ar    1  <0>         0.0718
     18 C18         7.4929   -1.5352   37.3749 C.ar    1  <0>         0.0808
     19 C19         7.3357   -1.1517   38.6916 C.ar    1  <0>        -0.0001
     20 C20        10.8302    2.4638   37.6297 C.ar    1  <0>         0.1360
     21 C21         6.5697   -4.4468   41.5990 C.3     1  <0>         0.0023
     22 C22         9.8894    1.2275   39.4941 C.2     1  <0>         0.2471
     23 C23         5.4526   -4.9240   42.4807 C.2     1  <0>         0.0451
     24 C24        14.4166    3.7408   37.0122 C.3     1  <0>         0.4175
     25 N1          8.8166    0.8904   38.6591 N.am    1  <0>        -0.3071
     26 O1          4.7194   -5.8703   41.8755 O.co2   1  <0>        -0.5495
     27 O2          9.9514    1.0179   40.6850 O.2     1  <0>        -0.2701
     28 O3          5.1997   -4.5601   43.6168 O.co2   1  <0>        -0.5495
     29 O4          7.9412   -0.5741   36.5830 O.3     1  <0>        -0.3444
     30 F1          9.6280    2.4796   37.0139 F       1  <0>        -0.2047
     31 F2         14.8740    4.7556   37.7430 F       1  <0>        -0.1659
     32 F3         14.1569    4.2665   35.7709 F       1  <0>        -0.1659
     33 F4         15.4657    2.9434   36.8844 F       1  <0>        -0.1659
     34 H1          4.4414    1.9436   36.2379 H       1  <0>         0.0230
     35 H2          5.7396    0.9503   36.9824 H       1  <0>         0.0230
     36 H3          6.0992    2.6137   36.4072 H       1  <0>         0.0230
     37 H4          9.2311   -6.7243   40.9435 H       1  <0>         0.0230
     38 H5          7.5855   -6.7758   40.2255 H       1  <0>         0.0230
     39 H6          8.6786   -5.3956   39.8685 H       1  <0>         0.0230
     40 H7          6.4801   -4.7776   37.5244 H       1  <0>         0.0621
     41 H8         14.3123    2.4329   39.3917 H       1  <0>         0.0623
     42 H9         12.3563    1.3581   40.4454 H       1  <0>         0.0626
     43 H10         7.3155   -3.1068   35.9153 H       1  <0>         0.0643
     44 H11         6.7413   -1.8383   40.6648 H       1  <0>         0.0624
     45 H12        11.8169    3.5610   36.0453 H       1  <0>         0.0652
     46 H13         5.2937    0.2452   34.6543 H       1  <0>         0.0263
     47 H14         5.6520    1.9027   34.0812 H       1  <0>         0.0263
     48 H15         7.5123   -6.1216   42.5911 H       1  <0>         0.0269
     49 H16         8.6201   -4.7229   42.2293 H       1  <0>         0.0269
     50 H17         7.7368    1.0438   33.8663 H       1  <0>         0.0287
     51 H18         7.8225    1.4830   35.6111 H       1  <0>         0.0287
     52 H19         6.6468   -1.1907   35.0696 H       1  <0>         0.0565
     53 H20         8.3510   -1.0285   34.5902 H       1  <0>         0.0565
     54 H21         4.9747   -4.4189   40.1992 H       1  <0>         0.0319
     55 H22         6.3954   -5.4694   39.7475 H       1  <0>         0.0319
     56 H23         6.7810    0.8700   38.8884 H       1  <0>         0.0512
     57 H24         7.7604    0.1818   40.2649 H       1  <0>         0.0512
     58 H25         6.8751   -3.4123   41.8148 H       1  <0>         0.0363
     59 H26         8.8703    1.1047   37.6838 H       1  <0>         0.1493
@<TRIPOS>BOND
     1     1     9    1
     2     2    10    1
     3     3     6   ar
     4     3    15   ar
     5     4     5   ar
     6     4    16   ar
     7     5    17   ar
     8     6    18   ar
     9     7    15   ar
    10     7    19   ar
    11     8    16   ar
    12     8    20   ar
    13     9    11    1
    14    10    21    1
    15    11    12    1
    16    12    29    1
    17    13    15    1
    18    13    21    1
    19    14    19    1
    20    14    25    1
    21    16    24    1
    22    17    20   ar
    23    17    22    1
    24    18    19   ar
    25    18    29    1
    26    20    30    1
    27    21    23    1
    28    22    25   am
    29    22    27    2
    30    23    26    1
    31    23    28    2
    32    24    31    1
    33    24    32    1
    34    24    33    1
    35     1    34    1
    36     1    35    1
    37     1    36    1
    38     2    37    1
    39     2    38    1
    40     2    39    1
    41     3    40    1
    42     4    41    1
    43     5    42    1
    44     6    43    1
    45     7    44    1
    46     8    45    1
    47     9    46    1
    48     9    47    1
    49    10    48    1
    50    10    49    1
    51    11    50    1
    52    11    51    1
    53    12    52    1
    54    12    53    1
    55    13    54    1
    56    13    55    1
    57    14    56    1
    58    14    57    1
    59    21    58    1
    60    25    59    1
@<TRIPOS>SUBSTRUCTURE
     1 <0>         1 TEMP              0 ****  ****    0 ROOT

