
##########                                Name:        K55_922_2ZNP
##########                    Molecular_Weight:             468.468
##########                DOCK_Rotatable_Bonds:                  13
##########                       Formal_Charge:             -1.0004
##########                     HBond_Acceptors:                   9
##########                        HBond_Donors:                   1
##########                         Heavy_Atoms:                  33
##########                            HA_RMSDs:              10.422
##########                            HA_RMSDh:               9.893
##########                            HA_RMSDm:               8.083
##########                          Grid_Score:            1.862797
##########                     Grid_vdw_energy:          -34.031765
##########                      Grid_es_energy:           35.894562
##########           Internal_energy_repulsive:           35.042603

@<TRIPOS>MOLECULE
K55_922_2ZNP
 59 60 1 0 0
SMALL
USER_CHARGES


@<TRIPOS>ATOM
      1 C1          6.5151    0.9103   36.8419 C.3     1  <0>        -0.0652
      2 C2         10.6759   -6.1340   44.0096 C.3     1  <0>        -0.0647
      3 C3          8.1023   -5.7270   40.0075 C.ar    1  <0>        -0.0561
      4 C4         12.0345    2.6104   41.5083 C.ar    1  <0>        -0.0492
      5 C5         10.9249    1.8466   41.8659 C.ar    1  <0>        -0.0463
      6 C6          7.9451   -4.7602   39.0178 C.ar    1  <0>        -0.0311
      7 C7          8.0356   -3.9773   41.6934 C.ar    1  <0>        -0.0514
      8 C8         11.3105    2.4895   39.1782 C.ar    1  <0>        -0.0141
      9 C9          5.9267   -0.4691   36.7479 C.3     1  <0>        -0.0538
     10 C10         9.3313   -5.9910   44.7288 C.3     1  <0>        -0.0477
     11 C11         7.0378   -1.4202   36.5061 C.3     1  <0>        -0.0292
     12 C12         6.8756   -2.6546   37.3430 C.3     1  <0>         0.0542
     13 C13         8.3534   -6.4317   42.3867 C.3     1  <0>        -0.0197
     14 C14         7.7294   -1.5485   41.0784 C.3     1  <0>         0.0396
     15 C15         8.1563   -5.3573   41.3595 C.ar    1  <0>        -0.0463
     16 C16        12.2489    2.9457   40.1613 C.ar    1  <0>         0.0576
     17 C17        10.0120    1.4072   40.8946 C.ar    1  <0>         0.0718
     18 C18         7.8319   -3.4068   39.3601 C.ar    1  <0>         0.0808
     19 C19         7.8666   -2.9933   40.6767 C.ar    1  <0>        -0.0001
     20 C20        10.1909    1.7175   39.5661 C.ar    1  <0>         0.1360
     21 C21         8.0460   -6.0872   43.8395 C.3     1  <0>         0.0023
     22 C22         8.8889    0.6300   41.3015 C.2     1  <0>         0.2471
     23 C23         7.1819   -7.1849   44.3886 C.2     1  <0>         0.0451
     24 C24        13.4420    3.7811   39.7811 C.3     1  <0>         0.4175
     25 N1          8.8071   -0.6534   40.7467 N.am    1  <0>        -0.3071
     26 O1          7.7540   -8.3874   44.2271 O.co2   1  <0>        -0.5495
     27 O2          8.1062    1.1104   42.0906 O.2     1  <0>        -0.2701
     28 O3          6.1014   -7.0692   44.9420 O.co2   1  <0>        -0.5495
     29 O4          7.6786   -2.4218   38.4892 O.3     1  <0>        -0.3444
     30 F1          9.3166    1.2976   38.6260 F       1  <0>        -0.2047
     31 F2         13.2207    5.0827   39.9545 F       1  <0>        -0.1659
     32 F3         13.8109    3.6407   38.4662 F       1  <0>        -0.1659
     33 F4         14.5183    3.5417   40.5139 F       1  <0>        -0.1659
     34 H1          5.7122    1.6404   37.0215 H       1  <0>         0.0230
     35 H2          7.2354    0.9457   37.6725 H       1  <0>         0.0230
     36 H3          7.0286    1.1546   35.9003 H       1  <0>         0.0230
     37 H4         11.4938   -6.0485   44.7401 H       1  <0>         0.0230
     38 H5         10.7255   -7.1164   43.5173 H       1  <0>         0.0230
     39 H6         10.7741   -5.3399   43.2548 H       1  <0>         0.0230
     40 H7          8.1830   -6.7682   39.7324 H       1  <0>         0.0621
     41 H8         12.7284    2.9440   42.2657 H       1  <0>         0.0623
     42 H9         10.7658    1.5897   42.9027 H       1  <0>         0.0626
     43 H10         7.9103   -5.0559   37.9796 H       1  <0>         0.0643
     44 H11         8.0727   -3.6736   42.7292 H       1  <0>         0.0624
     45 H12        11.4591    2.7363   38.1373 H       1  <0>         0.0652
     46 H13         5.4104   -0.7233   37.6853 H       1  <0>         0.0263
     47 H14         5.2044   -0.5151   35.9195 H       1  <0>         0.0263
     48 H15         9.2731   -6.8001   45.4717 H       1  <0>         0.0269
     49 H16         9.3223   -4.9997   45.2057 H       1  <0>         0.0269
     50 H17         7.0407   -1.7052   35.4437 H       1  <0>         0.0287
     51 H18         7.9892   -0.9332   36.7662 H       1  <0>         0.0287
     52 H19         5.8226   -2.8079   37.6220 H       1  <0>         0.0565
     53 H20         7.2131   -3.5489   36.7985 H       1  <0>         0.0565
     54 H21         7.6888   -7.2632   42.1092 H       1  <0>         0.0319
     55 H22         9.4139   -6.7208   42.3456 H       1  <0>         0.0319
     56 H23         6.8304   -1.1632   40.5753 H       1  <0>         0.0512
     57 H24         7.6285   -1.5317   42.1736 H       1  <0>         0.0512
     58 H25         7.5552   -5.1030   43.8607 H       1  <0>         0.0363
     59 H26         9.5131   -0.9548   40.1058 H       1  <0>         0.1493
@<TRIPOS>BOND
     1     1     9    1
     2     2    10    1
     3     3     6   ar
     4     3    15   ar
     5     4     5   ar
     6     4    16   ar
     7     5    17   ar
     8     6    18   ar
     9     7    15   ar
    10     7    19   ar
    11     8    16   ar
    12     8    20   ar
    13     9    11    1
    14    10    21    1
    15    11    12    1
    16    12    29    1
    17    13    15    1
    18    13    21    1
    19    14    19    1
    20    14    25    1
    21    16    24    1
    22    17    20   ar
    23    17    22    1
    24    18    19   ar
    25    18    29    1
    26    20    30    1
    27    21    23    1
    28    22    25   am
    29    22    27    2
    30    23    26    1
    31    23    28    2
    32    24    31    1
    33    24    32    1
    34    24    33    1
    35     1    34    1
    36     1    35    1
    37     1    36    1
    38     2    37    1
    39     2    38    1
    40     2    39    1
    41     3    40    1
    42     4    41    1
    43     5    42    1
    44     6    43    1
    45     7    44    1
    46     8    45    1
    47     9    46    1
    48     9    47    1
    49    10    48    1
    50    10    49    1
    51    11    50    1
    52    11    51    1
    53    12    52    1
    54    12    53    1
    55    13    54    1
    56    13    55    1
    57    14    56    1
    58    14    57    1
    59    21    58    1
    60    25    59    1
@<TRIPOS>SUBSTRUCTURE
     1 <0>         1 TEMP              0 ****  ****    0 ROOT

