
##########                                Name:        K55_922_2ZNP
##########                    Molecular_Weight:             468.468
##########                DOCK_Rotatable_Bonds:                  13
##########                       Formal_Charge:             -1.0004
##########                     HBond_Acceptors:                   9
##########                        HBond_Donors:                   1
##########                         Heavy_Atoms:                  33
##########                            HA_RMSDs:              10.183
##########                            HA_RMSDh:               9.657
##########                            HA_RMSDm:               7.852
##########                          Grid_Score:           -1.245678
##########                     Grid_vdw_energy:          -37.918415
##########                      Grid_es_energy:           36.672737
##########           Internal_energy_repulsive:           27.137955

@<TRIPOS>MOLECULE
K55_922_2ZNP
 59 60 1 0 0
SMALL
USER_CHARGES


@<TRIPOS>ATOM
      1 C1          5.5545    0.9667   36.0751 C.3     1  <0>        -0.0652
      2 C2         10.0718   -5.5967   43.2597 C.3     1  <0>        -0.0647
      3 C3          7.6564   -5.0624   39.4217 C.ar    1  <0>        -0.0561
      4 C4         12.2155    2.9385   41.6865 C.ar    1  <0>        -0.0492
      5 C5         11.0866    2.1989   42.0342 C.ar    1  <0>        -0.0463
      6 C6          7.6565   -3.9874   38.5367 C.ar    1  <0>        -0.0311
      7 C7          7.6626   -3.4992   41.2830 C.ar    1  <0>        -0.0514
      8 C8         11.6185    2.6598   39.3341 C.ar    1  <0>        -0.0141
      9 C9          6.3446   -0.1544   35.4615 C.3     1  <0>        -0.0538
     10 C10         8.7384   -5.3712   43.9785 C.3     1  <0>        -0.0477
     11 C11         7.5517   -0.3674   36.2952 C.3     1  <0>        -0.0292
     12 C12         7.5800   -1.7619   36.8474 C.3     1  <0>         0.0542
     13 C13         7.6916   -6.0319   41.7193 C.3     1  <0>        -0.0197
     14 C14         7.6377   -1.0012   40.9221 C.3     1  <0>         0.0396
     15 C15         7.6651   -4.8423   40.8069 C.ar    1  <0>        -0.0463
     16 C16        12.5032    3.1826   40.3336 C.ar    1  <0>         0.0576
     17 C17        10.2267    1.6937   41.0467 C.ar    1  <0>         0.0718
     18 C18         7.6582   -2.6722   39.0186 C.ar    1  <0>         0.0808
     19 C19         7.6543   -2.4031   40.3725 C.ar    1  <0>        -0.0001
     20 C20        10.4778    1.9140   39.7120 C.ar    1  <0>         0.1360
     21 C21         7.4438   -5.7911   43.2040 C.3     1  <0>         0.0023
     22 C22         9.0815    0.9440   41.4437 C.2     1  <0>         0.2471
     23 C23         6.9481   -7.0803   43.7918 C.2     1  <0>         0.0451
     24 C24        13.7170    3.9922   39.9631 C.3     1  <0>         0.4175
     25 N1          8.7635   -0.1521   40.6317 N.am    1  <0>        -0.3071
     26 O1          7.8399   -8.0690   43.6293 O.co2   1  <0>        -0.5495
     27 O2          8.4814    1.2846   42.4387 O.2     1  <0>        -0.2701
     28 O3          5.8939   -7.2706   44.3746 O.co2   1  <0>        -0.5495
     29 O4          7.6568   -1.5919   38.2539 O.3     1  <0>        -0.3444
     30 F1          9.6548    1.4304   38.7563 F       1  <0>        -0.2047
     31 F2         13.4946    5.3021   40.0529 F       1  <0>        -0.1659
     32 F3         14.1457    3.7772   38.6768 F       1  <0>        -0.1659
     33 F4         14.7569    3.7917   40.7576 F       1  <0>        -0.1659
     34 H1          4.6497    1.1488   35.4766 H       1  <0>         0.0230
     35 H2          5.2665    0.6935   37.1010 H       1  <0>         0.0230
     36 H3          6.1689    1.8788   36.0972 H       1  <0>         0.0230
     37 H4         10.8978   -5.2632   43.9051 H       1  <0>         0.0230
     38 H5         10.1910   -6.6671   43.0357 H       1  <0>         0.0230
     39 H6         10.0844   -5.0220   42.3218 H       1  <0>         0.0230
     40 H7          7.6494   -6.0723   39.0390 H       1  <0>         0.0621
     41 H8         12.8681    3.3235   42.4562 H       1  <0>         0.0623
     42 H9         10.8710    2.0122   43.0759 H       1  <0>         0.0626
     43 H10         7.6553   -4.1688   37.4720 H       1  <0>         0.0643
     44 H11         7.6671   -3.3099   42.3462 H       1  <0>         0.0624
     45 H12        11.8237    2.8361   38.2885 H       1  <0>         0.0652
     46 H13         5.7385   -1.0720   35.4348 H       1  <0>         0.0263
     47 H14         6.6377    0.1091   34.4345 H       1  <0>         0.0263
     48 H15         8.7665   -5.9605   44.9068 H       1  <0>         0.0269
     49 H16         8.6585   -4.2934   44.1833 H       1  <0>         0.0269
     50 H17         8.4471   -0.2086   35.6764 H       1  <0>         0.0287
     51 H18         7.5413    0.3486   37.1303 H       1  <0>         0.0287
     52 H19         6.6738   -2.3178   36.5649 H       1  <0>         0.0565
     53 H20         8.4490   -2.3199   36.4683 H       1  <0>         0.0565
     54 H21         6.9042   -6.7170   41.3721 H       1  <0>         0.0319
     55 H22         8.6934   -6.4778   41.6320 H       1  <0>         0.0319
     56 H23         6.7498   -0.5061   40.5021 H       1  <0>         0.0512
     57 H24         7.5813   -1.0902   42.0171 H       1  <0>         0.0512
     58 H25         6.7197   -4.9687   43.3005 H       1  <0>         0.0363
     59 H26         9.3310   -0.3492   39.8324 H       1  <0>         0.1493
@<TRIPOS>BOND
     1     1     9    1
     2     2    10    1
     3     3     6   ar
     4     3    15   ar
     5     4     5   ar
     6     4    16   ar
     7     5    17   ar
     8     6    18   ar
     9     7    15   ar
    10     7    19   ar
    11     8    16   ar
    12     8    20   ar
    13     9    11    1
    14    10    21    1
    15    11    12    1
    16    12    29    1
    17    13    15    1
    18    13    21    1
    19    14    19    1
    20    14    25    1
    21    16    24    1
    22    17    20   ar
    23    17    22    1
    24    18    19   ar
    25    18    29    1
    26    20    30    1
    27    21    23    1
    28    22    25   am
    29    22    27    2
    30    23    26    1
    31    23    28    2
    32    24    31    1
    33    24    32    1
    34    24    33    1
    35     1    34    1
    36     1    35    1
    37     1    36    1
    38     2    37    1
    39     2    38    1
    40     2    39    1
    41     3    40    1
    42     4    41    1
    43     5    42    1
    44     6    43    1
    45     7    44    1
    46     8    45    1
    47     9    46    1
    48     9    47    1
    49    10    48    1
    50    10    49    1
    51    11    50    1
    52    11    51    1
    53    12    52    1
    54    12    53    1
    55    13    54    1
    56    13    55    1
    57    14    56    1
    58    14    57    1
    59    21    58    1
    60    25    59    1
@<TRIPOS>SUBSTRUCTURE
     1 <0>         1 TEMP              0 ****  ****    0 ROOT

