
##########                                Name:        K55_922_2ZNP
##########                    Molecular_Weight:             468.468
##########                DOCK_Rotatable_Bonds:                  13
##########                       Formal_Charge:             -1.0004
##########                     HBond_Acceptors:                   9
##########                        HBond_Donors:                   1
##########                         Heavy_Atoms:                  33
##########                            HA_RMSDs:               0.303
##########                            HA_RMSDh:               0.303
##########                            HA_RMSDm:               0.303
##########                          Grid_Score:           14.059002
##########                     Grid_vdw_energy:          -44.421486
##########                      Grid_es_energy:           58.480488
##########           Internal_energy_repulsive:           47.223034

@<TRIPOS>MOLECULE
K55_922_2ZNP
 59 60 1 0 0
SMALL
USER_CHARGES


@<TRIPOS>ATOM
      1 C1         13.4203    7.3730   34.5217 C.3     1  <0>        -0.0652
      2 C2         20.3064   -0.6726   38.0692 C.3     1  <0>        -0.0647
      3 C3         18.8012    2.5992   35.3295 C.ar    1  <0>        -0.0561
      4 C4         11.7510    2.6602   42.0297 C.ar    1  <0>        -0.0492
      5 C5         11.9315    2.3311   40.6875 C.ar    1  <0>        -0.0463
      6 C6         18.0153    3.7446   35.4256 C.ar    1  <0>        -0.0311
      7 C7         16.9264    1.2750   36.1293 C.ar    1  <0>        -0.0514
      8 C8         13.6398    4.2003   41.8595 C.ar    1  <0>        -0.0141
      9 C9         14.8653    7.6622   34.8151 C.3     1  <0>        -0.0538
     10 C10        19.2173   -1.5840   37.4957 C.3     1  <0>        -0.0477
     11 C11        15.2370    6.9158   36.0407 C.3     1  <0>        -0.0292
     12 C12        16.3910    5.9946   35.7756 C.3     1  <0>         0.0542
     13 C13        19.1711    0.1463   35.5879 C.3     1  <0>        -0.0197
     14 C14        14.6974    2.3226   36.6813 C.3     1  <0>         0.0396
     15 C15        18.2777    1.3468   35.6830 C.ar    1  <0>        -0.0463
     16 C16        12.5993    3.5983   42.6406 C.ar    1  <0>         0.0576
     17 C17        12.9526    2.9286   39.9323 C.ar    1  <0>         0.0718
     18 C18        16.6897    3.6599   35.8698 C.ar    1  <0>         0.0808
     19 C19        16.1244    2.4495   36.2176 C.ar    1  <0>        -0.0001
     20 C20        13.8014    3.8516   40.4985 C.ar    1  <0>         0.1360
     21 C21        18.6285   -1.1825   36.1014 C.3     1  <0>         0.0023
     22 C22        13.1026    2.5665   38.5621 C.2     1  <0>         0.2471
     23 C23        19.0180   -2.2402   35.1102 C.2     1  <0>         0.0451
     24 C24        12.3931    3.9598   44.0872 C.3     1  <0>         0.4175
     25 N1         14.4015    2.6660   38.0477 N.am    1  <0>        -0.3071
     26 O1         20.2210   -1.9898   34.5722 O.co2   1  <0>        -0.5495
     27 O2         12.1267    2.1923   37.9507 O.2     1  <0>        -0.2701
     28 O3         18.3837   -3.2352   34.8024 O.co2   1  <0>        -0.5495
     29 O4         15.8704    4.6925   35.9909 O.3     1  <0>        -0.3444
     30 F1         14.7865    4.4302   39.7778 F       1  <0>        -0.2047
     31 F2         11.1160    4.2146   44.3651 F       1  <0>        -0.1659
     32 F3         13.0864    5.0794   44.4751 F       1  <0>        -0.1659
     33 F4         12.7147    2.9921   44.9317 F       1  <0>        -0.1659
     34 H1         13.1143    7.9148   33.6147 H       1  <0>         0.0230
     35 H2         13.2872    6.2923   34.3656 H       1  <0>         0.0230
     36 H3         12.8015    7.7001   35.3703 H       1  <0>         0.0230
     37 H4         20.6340   -1.0610   39.0448 H       1  <0>         0.0230
     38 H5         21.1626   -0.6457   37.3792 H       1  <0>         0.0230
     39 H6         19.9048    0.3437   38.1954 H       1  <0>         0.0230
     40 H7         19.8203    2.6755   34.9805 H       1  <0>         0.0621
     41 H8         10.9601    2.1947   42.5991 H       1  <0>         0.0623
     42 H9         11.2778    1.6076   40.2230 H       1  <0>         0.0626
     43 H10        18.4306    4.7045   35.1559 H       1  <0>         0.0643
     44 H11        16.5051    0.3192   36.4038 H       1  <0>         0.0624
     45 H12        14.3027    4.9228   42.3121 H       1  <0>         0.0652
     46 H13        15.4932    7.3386   33.9719 H       1  <0>         0.0263
     47 H14        15.0092    8.7413   34.9729 H       1  <0>         0.0263
     48 H15        19.6577   -2.5860   37.3855 H       1  <0>         0.0269
     49 H16        18.3830   -1.5833   38.2126 H       1  <0>         0.0269
     50 H17        15.5236    7.6330   36.8240 H       1  <0>         0.0287
     51 H18        14.3734    6.3216   36.3742 H       1  <0>         0.0287
     52 H19        16.7592    6.1082   34.7452 H       1  <0>         0.0565
     53 H20        17.2287    6.2035   36.4573 H       1  <0>         0.0565
     54 H21        19.4022    0.0051   34.5218 H       1  <0>         0.0319
     55 H22        20.0715    0.3719   36.1781 H       1  <0>         0.0319
     56 H23        14.0972    2.9929   36.0484 H       1  <0>         0.0512
     57 H24        14.4136    1.2680   36.5505 H       1  <0>         0.0512
     58 H25        17.5392   -1.0842   36.2188 H       1  <0>         0.0363
     59 H26        15.1400    2.9827   38.6430 H       1  <0>         0.1493
@<TRIPOS>BOND
     1     1     9    1
     2     2    10    1
     3     3     6   ar
     4     3    15   ar
     5     4     5   ar
     6     4    16   ar
     7     5    17   ar
     8     6    18   ar
     9     7    15   ar
    10     7    19   ar
    11     8    16   ar
    12     8    20   ar
    13     9    11    1
    14    10    21    1
    15    11    12    1
    16    12    29    1
    17    13    15    1
    18    13    21    1
    19    14    19    1
    20    14    25    1
    21    16    24    1
    22    17    20   ar
    23    17    22    1
    24    18    19   ar
    25    18    29    1
    26    20    30    1
    27    21    23    1
    28    22    25   am
    29    22    27    2
    30    23    26    1
    31    23    28    2
    32    24    31    1
    33    24    32    1
    34    24    33    1
    35     1    34    1
    36     1    35    1
    37     1    36    1
    38     2    37    1
    39     2    38    1
    40     2    39    1
    41     3    40    1
    42     4    41    1
    43     5    42    1
    44     6    43    1
    45     7    44    1
    46     8    45    1
    47     9    46    1
    48     9    47    1
    49    10    48    1
    50    10    49    1
    51    11    50    1
    52    11    51    1
    53    12    52    1
    54    12    53    1
    55    13    54    1
    56    13    55    1
    57    14    56    1
    58    14    57    1
    59    21    58    1
    60    25    59    1
@<TRIPOS>SUBSTRUCTURE
     1 <0>         1 TEMP              0 ****  ****    0 ROOT

