
##########                                Name:          2IC_1_2ICA
##########                    Molecular_Weight:             484.535
##########                DOCK_Rotatable_Bonds:                   5
##########                       Formal_Charge:         9.96739e-05
##########                     HBond_Acceptors:                  11
##########                        HBond_Donors:                   1
##########                         Heavy_Atoms:                  37
##########                            HA_RMSDs:               0.381
##########                            HA_RMSDh:               0.381
##########                            HA_RMSDm:               0.381
##########                          Grid_Score:          -63.101128
##########                     Grid_vdw_energy:          -53.093952
##########                      Grid_es_energy:          -10.007177
##########           Internal_energy_repulsive:           12.545716

@<TRIPOS>MOLECULE
2IC_1_2ICA
 57 61 1 0 0
SMALL
USER_CHARGES


@<TRIPOS>ATOM
      1 C1        -12.6936    2.0936   28.8071 C.3     1  <0>         0.0059
      2 C2        -10.6775   -2.1498   26.5140 C.ar    1  <0>        -0.0441
      3 C3         -9.0438   -1.3046   24.9121 C.ar    1  <0>        -0.0441
      4 C4        -11.3097   -0.8960   26.5211 C.ar    1  <0>        -0.0568
      5 C5         -9.6713   -0.0476   24.9205 C.ar    1  <0>        -0.0568
      6 C6         -7.4488    1.2770   30.0579 C.ar    1  <0>        -0.0214
      7 C7         -7.2083    0.2269   27.8723 C.ar    1  <0>        -0.0214
      8 C8         -5.4723   -0.0867   29.5846 C.ar    1  <0>        -0.0249
      9 C9        -13.7494    6.1657   23.8689 C.2     1  <0>        -0.0376
     10 C10       -13.3553    8.1058   25.1395 C.2     1  <0>        -0.0150
     11 C11       -11.5705    2.4179   24.7286 C.3     1  <0>        -0.0218
     12 C12       -11.1844    3.8462   26.5719 C.3     1  <0>         0.0001
     13 C13       -11.7002    4.6647   24.2024 C.3     1  <0>         0.0005
     14 C14        -8.9540   -3.6410   25.6400 C.1     1  <0>         0.0992
     15 C15        -9.5513   -2.3465   25.7028 C.ar    1  <0>         0.0518
     16 C16       -10.7926    0.1833   25.7672 C.ar    1  <0>        -0.0365
     17 C17        -7.9513    1.0459   28.7642 C.ar    1  <0>         0.0482
     18 C18        -6.2356    0.6988   30.4497 C.ar    1  <0>         0.0441
     19 C19        -5.9833   -0.3084   28.3020 C.ar    1  <0>         0.0441
     20 C20       -14.2106    7.4869   24.3145 C.2     1  <0>         0.0048
     21 C21       -12.5350    5.8918   24.3789 C.2     1  <0>         0.0348
     22 C22       -11.4385    1.5296   25.9425 C.3     1  <0>         0.0593
     23 C23        -9.3555    2.1976   27.1954 C.2     1  <0>         0.2572
     24 C24       -10.3090    1.4805   29.0923 C.2     1  <0>         0.3164
     25 C25       -15.4827    8.1143   23.8877 C.2     1  <0>         0.0722
     26 C26       -10.8683    2.4198   27.0436 C.3     1  <0>         0.1667
     27 N1         -8.4935   -4.7007   25.5591 N.1     1  <0>        -0.1909
     28 N2        -11.9240    3.7095   25.2915 N.4     1  <0>         0.2413
     29 N3        -11.2977    2.0273   28.3756 N.am    1  <0>        -0.2684
     30 N4         -9.1466    1.5785   28.3876 N.am    1  <0>        -0.1920
     31 O1        -15.7905    9.2329   24.3533 O.co2   1  <0>        -0.5446
     32 O2         -8.5298    2.5392   26.3494 O.2     1  <0>        -0.2722
     33 O3        -10.4615    0.9683   30.1994 O.2     1  <0>        -0.2516
     34 O4        -16.1972    7.5071   23.0614 O.co2   1  <0>        -0.5446
     35 S1        -11.8433    7.2352   25.2559 S.3     1  <0>        -0.0957
     36 CL1        -5.6795    0.9319   32.0569 CL      1  <0>        -0.0834
     37 CL2        -5.0679   -1.3036   27.2252 CL      1  <0>        -0.0834
     38 H1        -13.2943    2.5918   28.0320 H       1  <0>         0.0429
     39 H2        -13.0761    1.0750   28.9688 H       1  <0>         0.0429
     40 H3        -12.7605    2.6637   29.7455 H       1  <0>         0.0429
     41 H4        -11.0551   -2.9545   27.1274 H       1  <0>         0.0630
     42 H5         -8.1713   -1.4688   24.2972 H       1  <0>         0.0630
     43 H6        -12.2035   -0.7537   27.1104 H       1  <0>         0.0621
     44 H7         -9.3030    0.7438   24.2846 H       1  <0>         0.0621
     45 H8         -7.9985    1.8999   30.7479 H       1  <0>         0.0651
     46 H9         -7.5797    0.0192   26.8797 H       1  <0>         0.0651
     47 H10        -4.5260   -0.5060   29.8931 H       1  <0>         0.0647
     48 H11       -14.3076    5.5055   23.2216 H       1  <0>         0.0634
     49 H12       -13.5718    9.0241   25.6649 H       1  <0>         0.0700
     50 H13       -10.6294    2.4687   24.1614 H       1  <0>         0.0821
     51 H14       -12.3476    2.0505   24.0422 H       1  <0>         0.0821
     52 H15       -11.7989    4.3716   27.3177 H       1  <0>         0.0841
     53 H16       -10.2563    4.4172   26.4220 H       1  <0>         0.0841
     54 H17       -11.9674    4.1863   23.2485 H       1  <0>         0.0872
     55 H18       -10.6389    4.9539   24.1948 H       1  <0>         0.0872
     56 H19       -12.4319    1.1465   26.2189 H       1  <0>         0.0429
     57 H20       -12.8704    3.8635   25.5754 H       1  <0>         0.2038
@<TRIPOS>BOND
     1     1    29    1
     2     2     4   ar
     3     2    15   ar
     4     3     5   ar
     5     3    15   ar
     6     4    16   ar
     7     5    16   ar
     8     6    17   ar
     9     6    18   ar
    10     7    17   ar
    11     7    19   ar
    12     8    18   ar
    13     8    19   ar
    14     9    20    1
    15     9    21    2
    16    10    20    2
    17    10    35    1
    18    11    22    1
    19    11    28    1
    20    12    26    1
    21    12    28    1
    22    13    21    1
    23    13    28    1
    24    14    15    1
    25    14    27    3
    26    16    22    1
    27    17    30    1
    28    18    36    1
    29    19    37    1
    30    20    25    1
    31    21    35    1
    32    22    26    1
    33    23    26    1
    34    23    30   am
    35    23    32    2
    36    24    29   am
    37    24    30   am
    38    24    33    2
    39    25    31    1
    40    25    34    2
    41    26    29    1
    42     1    38    1
    43     1    39    1
    44     1    40    1
    45     2    41    1
    46     3    42    1
    47     4    43    1
    48     5    44    1
    49     6    45    1
    50     7    46    1
    51     8    47    1
    52     9    48    1
    53    10    49    1
    54    11    50    1
    55    11    51    1
    56    12    52    1
    57    12    53    1
    58    13    54    1
    59    13    55    1
    60    22    56    1
    61    28    57    1
@<TRIPOS>SUBSTRUCTURE
     1 <0>         1 TEMP              0 ****  ****    0 ROOT

