
##########                                Name:          2IC_1_2ICA
##########                    Molecular_Weight:             484.535
##########                DOCK_Rotatable_Bonds:                   5
##########                       Formal_Charge:         9.96739e-05
##########                     HBond_Acceptors:                  11
##########                        HBond_Donors:                   1
##########                         Heavy_Atoms:                  37
##########                            HA_RMSDs:               0.508
##########                            HA_RMSDh:               0.508
##########                            HA_RMSDm:               0.466
##########                          Grid_Score:          -67.263855
##########                     Grid_vdw_energy:          -57.318695
##########                      Grid_es_energy:           -9.945158
##########           Internal_energy_repulsive:           14.464892

@<TRIPOS>MOLECULE
2IC_1_2ICA
 57 61 1 0 0
SMALL
USER_CHARGES


@<TRIPOS>ATOM
      1 C1        -12.5925    2.3106   28.8320 C.3     1  <0>         0.0059
      2 C2        -10.8601   -2.1057   26.5275 C.ar    1  <0>        -0.0441
      3 C3         -8.9794   -1.3151   25.1907 C.ar    1  <0>        -0.0441
      4 C4        -11.4155   -0.8164   26.4970 C.ar    1  <0>        -0.0568
      5 C5         -9.5300   -0.0229   25.1623 C.ar    1  <0>        -0.0568
      6 C6         -7.4498    1.2176   30.1987 C.ar    1  <0>        -0.0214
      7 C7         -7.1422    0.2471   27.9849 C.ar    1  <0>        -0.0214
      8 C8         -5.4885   -0.1773   29.7539 C.ar    1  <0>        -0.0249
      9 C9        -13.5357    5.9537   23.4029 C.2     1  <0>        -0.0376
     10 C10       -13.6319    7.9565   24.6331 C.2     1  <0>        -0.0150
     11 C11       -11.4033    2.4952   24.7635 C.3     1  <0>        -0.0218
     12 C12       -10.9768    3.9444   26.5813 C.3     1  <0>         0.0001
     13 C13       -11.4243    4.7336   24.1881 C.3     1  <0>         0.0005
     14 C14        -9.1213   -3.6730   25.8361 C.1     1  <0>         0.0992
     15 C15        -9.6474   -2.3469   25.8671 C.ar    1  <0>         0.0518
     16 C16       -10.7408    0.2510   25.8598 C.ar    1  <0>        -0.0365
     17 C17        -7.9024    1.0499   28.8771 C.ar    1  <0>         0.0482
     18 C18        -6.2687    0.5935   30.6172 C.ar    1  <0>         0.0441
     19 C19        -5.9499   -0.3359   28.4434 C.ar    1  <0>         0.0441
     20 C20       -14.2303    7.2152   23.6909 C.2     1  <0>         0.0048
     21 C21       -12.4192    5.8482   24.1458 C.2     1  <0>         0.0348
     22 C22       -11.3273    1.6285   25.9977 C.3     1  <0>         0.0593
     23 C23        -9.2326    2.2292   27.2650 C.2     1  <0>         0.2572
     24 C24       -10.2420    1.5972   29.1632 C.2     1  <0>         0.3164
     25 C25       -15.4618    7.6659   23.0021 C.2     1  <0>         0.0722
     26 C26       -10.7316    2.5158   27.0875 C.3     1  <0>         0.1667
     27 N1         -8.7147   -4.7560   25.7778 N.1     1  <0>        -0.1909
     28 N2        -11.7051    3.8133   25.2940 N.4     1  <0>         0.2413
     29 N3        -11.1956    2.1721   28.4214 N.am    1  <0>        -0.2684
     30 N4         -9.0673    1.6274   28.4728 N.am    1  <0>        -0.1920
     31 O1        -15.8638    8.8350   23.1870 O.co2   1  <0>        -0.5446
     32 O2         -8.3814    2.5149   26.4234 O.2     1  <0>        -0.2722
     33 O3        -10.4318    1.1166   30.2786 O.2     1  <0>        -0.2516
     34 O4        -16.0475    6.8623   22.2449 O.co2   1  <0>        -0.5446
     35 S1        -12.0774    7.2883   25.0742 S.3     1  <0>        -0.0957
     36 CL1        -5.7758    0.7496   32.2540 CL      1  <0>        -0.0834
     37 CL2        -5.0139   -1.3119   27.3667 CL      1  <0>        -0.0834
     38 H1        -13.1599    2.8184   28.0382 H       1  <0>         0.0429
     39 H2        -13.0228    1.3140   29.0098 H       1  <0>         0.0429
     40 H3        -12.6456    2.9034   29.7571 H       1  <0>         0.0429
     41 H4        -11.3622   -2.9036   27.0545 H       1  <0>         0.0630
     42 H5         -8.0423   -1.5141   24.6921 H       1  <0>         0.0630
     43 H6        -12.3714   -0.6372   26.9667 H       1  <0>         0.0621
     44 H7         -9.0348    0.7630   24.6113 H       1  <0>         0.0621
     45 H8         -8.0131    1.8273   30.8896 H       1  <0>         0.0651
     46 H9         -7.4760    0.0877   26.9702 H       1  <0>         0.0651
     47 H10        -4.5666   -0.6326   30.0844 H       1  <0>         0.0647
     48 H11       -13.8743    5.2134   22.6932 H       1  <0>         0.0634
     49 H12       -14.0551    8.8515   25.0645 H       1  <0>         0.0700
     50 H13       -10.4536    2.4913   24.2085 H       1  <0>         0.0821
     51 H14       -12.1873    2.1483   24.0743 H       1  <0>         0.0821
     52 H15       -11.5764    4.5131   27.3073 H       1  <0>         0.0841
     53 H16       -10.0219    4.4698   26.4323 H       1  <0>         0.0841
     54 H17       -11.4726    4.1769   23.2406 H       1  <0>         0.0872
     55 H18       -10.4189    5.1585   24.3250 H       1  <0>         0.0872
     56 H19       -12.3405    1.2965   26.2683 H       1  <0>         0.0429
     57 H20       -12.6472    4.0159   25.5614 H       1  <0>         0.2038
@<TRIPOS>BOND
     1     1    29    1
     2     2     4   ar
     3     2    15   ar
     4     3     5   ar
     5     3    15   ar
     6     4    16   ar
     7     5    16   ar
     8     6    17   ar
     9     6    18   ar
    10     7    17   ar
    11     7    19   ar
    12     8    18   ar
    13     8    19   ar
    14     9    20    1
    15     9    21    2
    16    10    20    2
    17    10    35    1
    18    11    22    1
    19    11    28    1
    20    12    26    1
    21    12    28    1
    22    13    21    1
    23    13    28    1
    24    14    15    1
    25    14    27    3
    26    16    22    1
    27    17    30    1
    28    18    36    1
    29    19    37    1
    30    20    25    1
    31    21    35    1
    32    22    26    1
    33    23    26    1
    34    23    30   am
    35    23    32    2
    36    24    29   am
    37    24    30   am
    38    24    33    2
    39    25    31    1
    40    25    34    2
    41    26    29    1
    42     1    38    1
    43     1    39    1
    44     1    40    1
    45     2    41    1
    46     3    42    1
    47     4    43    1
    48     5    44    1
    49     6    45    1
    50     7    46    1
    51     8    47    1
    52     9    48    1
    53    10    49    1
    54    11    50    1
    55    11    51    1
    56    12    52    1
    57    12    53    1
    58    13    54    1
    59    13    55    1
    60    22    56    1
    61    28    57    1
@<TRIPOS>SUBSTRUCTURE
     1 <0>         1 TEMP              0 ****  ****    0 ROOT

